
**** 11/08/23 16:13:00 ****** PSpice Lite (October 2012) ****** ID# 10813 ****

 ** Profile: "SCHEMATIC1-temp"  [ d:\proiectul_meu\proiect-pspicefiles\schematic1\temp.sim ] 


 ****     CIRCUIT DESCRIPTION


******************************************************************************




** Creating circuit file "temp.cir" 
** WARNING: THIS AUTOMATICALLY GENERATED FILE MAY BE OVERWRITTEN BY SUBSEQUENT SIMULATIONS

*Libraries: 
* Profile Libraries :
* Local Libraries :
.LIB "C:/Users/alber/OneDrive/Desktop/librarii_proiect/Lib_ModelePSpice_Anexa_1/Modele_A1_lib/BC856B.lib" 
.LIB "C:/Users/alber/OneDrive/Desktop/librarii_proiect/Lib_ModelePSpice_Anexa_1/Modele_A1_lib/BZX84C5V6.lib" 
.LIB "C:/Users/alber/OneDrive/Desktop/librarii_proiect/Lib_ModelePSpice_Anexa_1/Modele_A1_lib/BC846B.lib" 
.LIB "C:/Users/alber/OneDrive/Desktop/librarii_proiect/Lib_ModelePSpice_Anexa_1/Modele_A1_lib/MJD31CG.lib" 
.LIB "C:/Users/alber/OneDrive/Desktop/librarii_proiect/Lib_ModelePSpice_Anexa_1/Modele_A1_lib/BC817-25.lib" 
.LIB "C:/Users/alber/OneDrive/Desktop/librarii_proiect/Lib_ModelePSpice_Anexa_1/Modele_A1_lib/BZX84C2V7.lib" 
.LIB "C:/Users/alber/OneDrive/Desktop/librarii_proiect/Lib_ModelePSpice_Anexa_1/Modele_A1_lib/BZX84C5V1.lib" 
.LIB "C:/Users/alber/OneDrive/Desktop/librarii_proiect/Lib_ModelePSpice_Anexa_1/Modele_A1_lib/BZX84C6V8.lib" 
* From [PSPICE NETLIST] section of C:\Users\alber\AppData\Roaming\SPB_Data\cdssetup\OrCAD_PSpice/16.6.0/PSpice.ini file:
.lib "nomd.lib" 

*Analysis directives: 
.DC LIN TEMP 0 500 0.01 
.OPTIONS ADVCONV
.PROBE64 V(alias(*)) I(alias(*)) W(alias(*)) D(alias(*)) NOISE(alias(*)) 
.INC "..\SCHEMATIC1.net" 



**** INCLUDING SCHEMATIC1.net ****
* source PROIECT
V_V1         N03167 0 24Vdc
R_R7         N04098 N16700  330 TC=0,0 
R_R8         0 N04098  150 TC=0,0 
Q_Q8         N15140 N29483 N08493 QBC846B 
Q_Q9         N14785 N03180 N08493 QBC846B 
R_R11         N14791 N03167  1k TC=0,0 
R_R12         N14927 N03167  1k TC=0,0 
R_R13         N03180 N03167  3.8k TC=0,0 
D_D4         0 N03180 BZX84-C5V1 
Q_Q11         N08493 N14010 N13859 QBC846B 
Q_Q12         N14010 N13859 0 QBC846B 
R_R14         0 N13859  135 TC=0,0 
R_R16         N14010 N03167  4.56k TC=0,0 
R_R22         N16711 N16700  3.3k TC=0,0 
R_R25         0 N16719  10k TC=0,0 
Q_Q15         N15140 N14785 N14927 QBC856B 
Q_Q16         N14785 N14785 N14791 QBC856B 
Q_Q18         N03167 N15140 N210281 QBC846B 
Q_Q19         N15140 N26266 0 QBC846B 
R_R26         N26266 N03180  8.7k TC=0,0 
R_R27         0 N26266  1k TC=0,0 
Q_Q20         N15140 N27891 N16700 QBC846B 
X_R29         N16711 N29483 N16719 POT PARAMS: SET=0 VALUE=10K
Q_Q21         N03167 N210281 N27891 QMJD31C 
R_R30         N27891 N30956  1 TC=0,0 
R_R31         N30956 N16700  0.47 TC=0,0 

**** RESUMING temp.cir ****
.END

**** 11/08/23 16:13:00 ****** PSpice Lite (October 2012) ****** ID# 10813 ****

 ** Profile: "SCHEMATIC1-temp"  [ d:\proiectul_meu\proiect-pspicefiles\schematic1\temp.sim ] 


 ****     Diode MODEL PARAMETERS


******************************************************************************




               BZX84-C5V1      
          IS    2.666500E-18 
           N     .82284      
         ISR  150.400000E-12 
         IKF     .01176      
          BV    5.176        
         IBV     .10454      
          RS     .51617      
          TT   43.858000E-09 
         CJO  232.290000E-12 
          VJ     .79587      
           M     .35004      


**** 11/08/23 16:13:00 ****** PSpice Lite (October 2012) ****** ID# 10813 ****

 ** Profile: "SCHEMATIC1-temp"  [ d:\proiectul_meu\proiect-pspicefiles\schematic1\temp.sim ] 


 ****     BJT MODEL PARAMETERS


******************************************************************************




               QBC856B         QBC846B         QMJD31C         
               PNP             NPN             NPN             
       LEVEL    1               1               1            
          IS   20.140000E-15   18.220000E-15   90.620200E-12 
          EG                                    1.05         
          BF  315.3           324.4             3.418700E+03 
          NF     .9974           .9932          1.17603      
         VAF   39.15           82              29.2393       
         IKF     .079            .109            .108267     
         ISE    6.578000E-15  289.400000E-18  537.193000E-09 
          NE    1.45            1.4             4            
          BR    8.68            8.29          367.353        
          NR     .9952           .9931          5            
         VAR    9.5            17.9             1.631        
         IKR     .09             .09            1.15207      
         ISC   16.330000E-15    9.982000E-12    1.157540E-09 
          NC    1.15            1.763           1.49179      
         ISS    0               0               0            
          RB   10              10              22.4853       
         RBM    5.000000E-06    5               1.000000E-12 
         IRB    5.000000E-06    5.000000E-06    2.209370E-03 
          RE     .663            .649         100.000000E-06 
          RC     .718            .7014           .138633     
         CJE   11.350000E-12   12.440000E-12  373.889000E-12 
         VJE     .7071           .7579           .67672      
         MJE     .3808           .3656           .575056     
         CJC    6.395000E-12    3.347000E-12  352.510000E-12 
         VJC     .4951           .5463           .884306     
         MJC     .44             .391            .473486     
        XCJC     .6288           .6193           .1          
         CJS    0               0               0            
         VJS     .75             .75             .75         
         MJS     .333            .333            .5          
          FC     .9059           .979            .8          
          TF  654.600000E-12  490.800000E-12   10.000000E-09 
         XTF    5.387           9.51            3.4926       
         VTF    6.245           2.927          12.6615       
         ITF     .2108           .3131           .052395     
          TR   55.000000E-09   90.000000E-09    3.298030E-06 
         XTB                                  999.997000E-15 
         XTI                                    1.000000E-12 
          KF    0               0               0            
          AF    1               1               1            
          CN    2.2             2.42            2.42         
           D     .52             .87             .87         


ERROR(ORPSIM-15007): Model QBC856B has negative VJC.

ERROR(ORPSIM-15007): Model QBC856B has negative VJC.

ERROR(ORPSIM-15007): Model QBC856B has negative VJC.

ERROR(ORPSIM-15007): Model QBC856B has negative VJC.

ERROR(ORPSIM-15007): Model QBC856B has negative VJC.

ERROR(ORPSIM-15007): Model QBC856B has negative VJC.

ERROR(ORPSIM-15007): Model QBC856B has negative VJC.

ERROR(ORPSIM-15007): Model QBC856B has negative VJC.

ERROR(ORPSIM-15007): Model QBC856B has negative VJC.

ERROR(ORPSIM-15007): Model QBC856B has negative VJC.

ERROR(ORPSIM-15007): Model QBC856B has negative VJC.

ERROR(ORPSIM-15007): Model QBC856B has negative VJC.

ERROR(ORPSIM-15007): Model QBC856B has negative VJC.

ERROR(ORPSIM-15007): Model QBC856B has negative VJC.

ERROR(ORPSIM-15007): Model QBC856B has negative VJC.

ERROR(ORPSIM-15007): Model QBC856B has negative VJC.

ERROR(ORPSIM-15007): Model QBC856B has negative VJC.

ERROR(ORPSIM-15007): Model QBC856B has negative VJC.

ERROR(ORPSIM-15007): Model QBC856B has negative VJC.

ERROR(ORPSIM-15007): Model QBC856B has negative VJC.

ERROR(ORPSIM-15007): Model QBC856B has negative VJC.

ERROR(ORPSIM-15007): Model QBC856B has negative VJC.

ERROR(ORPSIM-15007): Model QBC856B has negative VJC.

ERROR(ORPSIM-15007): Model QBC856B has negative VJC.

ERROR(ORPSIM-15007): Model QBC856B has negative VJC.

ERROR(ORPSIM-15007): Model QBC856B has negative VJC.

ERROR(ORPSIM-15007): Model QBC856B has negative VJC.

ERROR(ORPSIM-15007): Model QBC856B has negative VJC.

ERROR(ORPSIM-15007): Model QBC856B has negative VJC.

ERROR(ORPSIM-15007): Model QBC856B has negative VJC.

ERROR(ORPSIM-15007): Model QBC856B has negative VJC.

ERROR(ORPSIM-15007): Model QBC856B has negative VJC.

ERROR(ORPSIM-15007): Model QBC856B has negative VJC.

ERROR(ORPSIM-15007): Model QBC856B has negative VJC.

ERROR(ORPSIM-15007): Model QBC856B has negative VJC.

ERROR(ORPSIM-15007): Model QBC856B has negative VJC.

ERROR(ORPSIM-15007): Model QBC856B has negative VJC.

ERROR(ORPSIM-15007): Model QBC856B has negative VJC.

ERROR(ORPSIM-15007): Model QBC856B has negative VJC.

ERROR(ORPSIM-15007): Model QBC856B has negative VJC.

ERROR(ORPSIM-15007): Model QBC856B has negative VJC.

ERROR(ORPSIM-15007): Model QBC856B has negative VJC.

ERROR(ORPSIM-15007): Model QBC856B has negative VJC.

ERROR(ORPSIM-15007): Model QBC856B has negative VJC.

ERROR(ORPSIM-15007): Model QBC856B has negative VJC.

ERROR(ORPSIM-15007): Model QBC856B has negative VJC.

ERROR(ORPSIM-15007): Model QBC856B has negative VJC.

ERROR(ORPSIM-15007): Model QBC856B has negative VJC.

ERROR(ORPSIM-15007): Model QBC856B has negative VJC.

ERROR(ORPSIM-15007): Model QBC856B has negative VJC.

ERROR(ORPSIM-15007): Model QBC856B has negative VJC.

ERROR(ORPSIM-15007): Model QBC856B has negative VJC.

ERROR(ORPSIM-15007): Model QBC856B has negative VJC.

ERROR(ORPSIM-15007): Model QBC856B has negative VJC.

ERROR(ORPSIM-15007): Model QBC856B has negative VJC.

ERROR(ORPSIM-15007): Model QBC856B has negative VJC.

ERROR(ORPSIM-15007): Model QBC856B has negative VJC.

ERROR(ORPSIM-15007): Model QBC856B has negative VJC.

ERROR(ORPSIM-15007): Model QBC856B has negative VJC.

ERROR(ORPSIM-15007): Model QBC856B has negative VJC.

ERROR(ORPSIM-15007): Model QBC856B has negative VJC.

ERROR(ORPSIM-15007): Model QBC856B has negative VJC.

ERROR(ORPSIM-15007): Model QBC856B has negative VJC.

ERROR(ORPSIM-15007): Model QBC856B has negative VJC.

ERROR(ORPSIM-15007): Model QBC856B has negative VJC.

ERROR(ORPSIM-15007): Model QBC856B has negative VJC.

ERROR(ORPSIM-15007): Model QBC856B has negative VJC.

ERROR(ORPSIM-15007): Model QBC856B has negative VJC.

ERROR(ORPSIM-15007): Model QBC856B has negative VJC.

ERROR(ORPSIM-15007): Model QBC856B has negative VJC.

ERROR(ORPSIM-15007): Model QBC856B has negative VJC.

ERROR(ORPSIM-15007): Model QBC856B has negative VJC.

ERROR(ORPSIM-15007): Model QBC856B has negative VJC.

ERROR(ORPSIM-15007): Model QBC856B has negative VJC.

ERROR(ORPSIM-15007): Model QBC856B has negative VJC.

ERROR(ORPSIM-15007): Model QBC856B has negative VJC.

ERROR(ORPSIM-15007): Model QBC856B has negative VJC.

ERROR(ORPSIM-15007): Model QBC856B has negative VJC.

ERROR(ORPSIM-15007): Model QBC856B has negative VJC.

ERROR(ORPSIM-15007): Model QBC856B has negative VJC.

ERROR(ORPSIM-15007): Model QBC856B has negative VJC.

ERROR(ORPSIM-15007): Model QBC856B has negative VJC.

ERROR(ORPSIM-15007): Model QBC856B has negative VJC.

ERROR(ORPSIM-15007): Model QBC856B has negative VJC.

ERROR(ORPSIM-15007): Model QBC856B has negative VJC.

ERROR(ORPSIM-15007): Model QBC856B has negative VJC.

ERROR(ORPSIM-15007): Model QBC856B has negative VJC.

ERROR(ORPSIM-15007): Model QBC856B has negative VJC.

ERROR(ORPSIM-15007): Model QBC856B has negative VJC.

ERROR(ORPSIM-15007): Model QBC856B has negative VJC.

ERROR(ORPSIM-15007): Model QBC856B has negative VJC.

ERROR(ORPSIM-15007): Model QBC856B has negative VJC.

ERROR(ORPSIM-15007): Model QBC856B has negative VJC.

ERROR(ORPSIM-15007): Model QBC856B has negative VJC.

ERROR(ORPSIM-15007): Model QBC856B has negative VJC.

ERROR(ORPSIM-15007): Model QBC856B has negative VJC.

ERROR(ORPSIM-15007): Model QBC856B has negative VJC.

ERROR(ORPSIM-15007): Model QBC856B has negative VJC.

ERROR(ORPSIM-15007): Model QBC856B has negative VJC.

ERROR(ORPSIM-15007): Model QBC856B has negative VJC.

ERROR(ORPSIM-15007): Model QBC856B has negative VJC.

ERROR(ORPSIM-15007): Model QBC856B has negative VJC.

ERROR(ORPSIM-15007): Model QBC856B has negative VJC.

ERROR(ORPSIM-15007): Model QBC856B has negative VJC.

ERROR(ORPSIM-15007): Model QBC856B has negative VJC.

ERROR(ORPSIM-15007): Model QBC856B has negative VJC.

ERROR(ORPSIM-15007): Model QBC856B has negative VJC.

ERROR(ORPSIM-15007): Model QBC856B has negative VJC.

ERROR(ORPSIM-15007): Model QBC856B has negative VJC.

ERROR(ORPSIM-15007): Model QBC856B has negative VJC.

ERROR(ORPSIM-15007): Model QBC856B has negative VJC.

ERROR(ORPSIM-15007): Model QBC856B has negative VJC.

ERROR(ORPSIM-15007): Model QBC856B has negative VJC.

ERROR(ORPSIM-15007): Model QBC856B has negative VJC.

ERROR(ORPSIM-15007): Model QBC856B has negative VJC.

ERROR(ORPSIM-15007): Model QBC856B has negative VJC.

ERROR(ORPSIM-15007): Model QBC856B has negative VJC.

ERROR(ORPSIM-15007): Model QBC856B has negative VJC.

ERROR(ORPSIM-15007): Model QBC856B has negative VJC.

ERROR(ORPSIM-15007): Model QBC856B has negative VJC.

ERROR(ORPSIM-15007): Model QBC856B has negative VJC.

ERROR(ORPSIM-15007): Model QBC856B has negative VJC.

ERROR(ORPSIM-15007): Model QBC856B has negative VJC.

ERROR(ORPSIM-15007): Model QBC856B has negative VJC.

ERROR(ORPSIM-15007): Model QBC856B has negative VJC.

ERROR(ORPSIM-15007): Model QBC856B has negative VJC.

ERROR(ORPSIM-15007): Model QBC856B has negative VJC.

ERROR(ORPSIM-15007): Model QBC856B has negative VJC.

ERROR(ORPSIM-15007): Model QBC856B has negative VJC.

ERROR(ORPSIM-15007): Model QBC856B has negative VJC.

ERROR(ORPSIM-15007): Model QBC856B has negative VJC.

ERROR(ORPSIM-15007): Model QBC856B has negative VJC.

ERROR(ORPSIM-15007): Model QBC856B has negative VJC.

ERROR(ORPSIM-15007): Model QBC856B has negative VJC.

ERROR(ORPSIM-15007): Model QBC856B has negative VJC.

ERROR(ORPSIM-15007): Model QBC856B has negative VJC.

ERROR(ORPSIM-15007): Model QBC856B has negative VJC.

ERROR(ORPSIM-15007): Model QBC856B has negative VJC.

ERROR(ORPSIM-15007): Model QBC856B has negative VJC.

ERROR(ORPSIM-15007): Model QBC856B has negative VJC.

ERROR(ORPSIM-15007): Model QBC856B has negative VJC.

ERROR(ORPSIM-15007): Model QBC856B has negative VJC.

ERROR(ORPSIM-15007): Model QBC856B has negative VJC.

ERROR(ORPSIM-15007): Model QBC856B has negative VJC.

ERROR(ORPSIM-15007): Model QBC856B has negative VJC.

ERROR(ORPSIM-15007): Model QBC856B has negative VJC.

ERROR(ORPSIM-15007): Model QBC856B has negative VJC.

ERROR(ORPSIM-15007): Model QBC856B has negative VJC.

ERROR(ORPSIM-15007): Model QBC856B has negative VJC.

ERROR(ORPSIM-15007): Model QBC856B has negative VJC.

ERROR(ORPSIM-15007): Model QBC856B has negative VJC.

ERROR(ORPSIM-15007): Model QBC856B has negative VJC.

ERROR(ORPSIM-15007): Model QBC856B has negative VJC.

ERROR(ORPSIM-15007): Model QBC856B has negative VJC.

ERROR(ORPSIM-15007): Model QBC856B has negative VJC.

ERROR(ORPSIM-15007): Model QBC856B has negative VJC.

ERROR(ORPSIM-15007): Model QBC856B has negative VJC.

ERROR(ORPSIM-15007): Model QBC856B has negative VJC.

ERROR(ORPSIM-15007): Model QBC856B has negative VJC.

ERROR(ORPSIM-15007): Model QBC856B has negative VJC.

ERROR(ORPSIM-15007): Model QBC856B has negative VJC.

ERROR(ORPSIM-15007): Model QBC856B has negative VJC.

ERROR(ORPSIM-15007): Model QBC856B has negative VJC.

ERROR(ORPSIM-15007): Model QBC856B has negative VJC.

ERROR(ORPSIM-15007): Model QBC856B has negative VJC.

ERROR(ORPSIM-15007): Model QBC856B has negative VJC.

ERROR(ORPSIM-15007): Model QBC856B has negative VJC.

ERROR(ORPSIM-15007): Model QBC856B has negative VJC.

ERROR(ORPSIM-15007): Model QBC856B has negative VJC.

ERROR(ORPSIM-15007): Model QBC856B has negative VJC.

ERROR(ORPSIM-15007): Model QBC856B has negative VJC.

ERROR(ORPSIM-15007): Model QBC856B has negative VJC.

ERROR(ORPSIM-15007): Model QBC856B has negative VJC.

ERROR(ORPSIM-15007): Model QBC856B has negative VJC.

ERROR(ORPSIM-15007): Model QBC856B has negative VJC.

ERROR(ORPSIM-15007): Model QBC856B has negative VJC.

ERROR(ORPSIM-15007): Model QBC856B has negative VJC.

ERROR(ORPSIM-15007): Model QBC856B has negative VJC.

ERROR(ORPSIM-15007): Model QBC856B has negative VJC.

ERROR(ORPSIM-15007): Model QBC856B has negative VJC.

ERROR(ORPSIM-15007): Model QBC856B has negative VJC.

ERROR(ORPSIM-15007): Model QBC856B has negative VJC.

ERROR(ORPSIM-15007): Model QBC856B has negative VJC.

ERROR(ORPSIM-15007): Model QBC856B has negative VJC.

ERROR(ORPSIM-15007): Model QBC856B has negative VJC.

ERROR(ORPSIM-15007): Model QBC856B has negative VJC.

ERROR(ORPSIM-15007): Model QBC856B has negative VJC.

ERROR(ORPSIM-15007): Model QBC856B has negative VJC.

ERROR(ORPSIM-15007): Model QBC856B has negative VJC.

ERROR(ORPSIM-15007): Model QBC856B has negative VJC.

ERROR(ORPSIM-15007): Model QBC856B has negative VJC.

ERROR(ORPSIM-15007): Model QBC856B has negative VJC.

ERROR(ORPSIM-15007): Model QBC856B has negative VJC.

ERROR(ORPSIM-15007): Model QBC856B has negative VJC.

ERROR(ORPSIM-15007): Model QBC856B has negative VJC.

ERROR(ORPSIM-15007): Model QBC856B has negative VJC.

ERROR(ORPSIM-15007): Model QBC856B has negative VJC.

ERROR(ORPSIM-15007): Model QBC856B has negative VJC.

ERROR(ORPSIM-15007): Model QBC856B has negative VJC.

ERROR(ORPSIM-15007): Model QBC856B has negative VJC.

ERROR(ORPSIM-15007): Model QBC856B has negative VJC.

ERROR(ORPSIM-15007): Model QBC856B has negative VJC.

ERROR(ORPSIM-15007): Model QBC856B has negative VJC.

ERROR(ORPSIM-15007): Model QBC856B has negative VJC.

ERROR(ORPSIM-15007): Model QBC856B has negative VJC.

ERROR(ORPSIM-15007): Model QBC856B has negative VJC.

ERROR(ORPSIM-15007): Model QBC856B has negative VJC.

ERROR(ORPSIM-15007): Model QBC856B has negative VJC.

ERROR(ORPSIM-15007): Model QBC856B has negative VJC.

ERROR(ORPSIM-15007): Model QBC856B has negative VJC.

ERROR(ORPSIM-15007): Model QBC856B has negative VJC.

ERROR(ORPSIM-15007): Model QBC856B has negative VJC.

ERROR(ORPSIM-15007): Model QBC856B has negative VJC.

ERROR(ORPSIM-15007): Model QBC856B has negative VJC.

ERROR(ORPSIM-15007): Model QBC856B has negative VJC.

ERROR(ORPSIM-15007): Model QBC856B has negative VJC.

ERROR(ORPSIM-15007): Model QBC856B has negative VJC.

ERROR(ORPSIM-15007): Model QBC856B has negative VJC.

ERROR(ORPSIM-15007): Model QBC856B has negative VJC.

ERROR(ORPSIM-15007): Model QBC856B has negative VJC.

ERROR(ORPSIM-15007): Model QBC856B has negative VJC.

ERROR(ORPSIM-15007): Model QBC856B has negative VJC.

ERROR(ORPSIM-15007): Model QBC856B has negative VJC.

ERROR(ORPSIM-15007): Model QBC856B has negative VJC.

ERROR(ORPSIM-15007): Model QBC856B has negative VJC.

ERROR(ORPSIM-15007): Model QBC856B has negative VJC.

ERROR(ORPSIM-15007): Model QBC856B has negative VJC.

ERROR(ORPSIM-15007): Model QBC856B has negative VJC.

ERROR(ORPSIM-15007): Model QBC856B has negative VJC.

ERROR(ORPSIM-15007): Model QBC856B has negative VJC.

ERROR(ORPSIM-15007): Model QBC856B has negative VJC.

ERROR(ORPSIM-15007): Model QBC856B has negative VJC.

ERROR(ORPSIM-15007): Model QBC856B has negative VJC.

ERROR(ORPSIM-15007): Model QBC856B has negative VJC.

ERROR(ORPSIM-15007): Model QBC856B has negative VJC.

ERROR(ORPSIM-15007): Model QBC856B has negative VJC.

ERROR(ORPSIM-15007): Model QBC856B has negative VJC.

ERROR(ORPSIM-15007): Model QBC856B has negative VJC.

ERROR(ORPSIM-15007): Model QBC856B has negative VJC.

ERROR(ORPSIM-15007): Model QBC856B has negative VJC.

ERROR(ORPSIM-15007): Model QBC856B has negative VJC.

ERROR(ORPSIM-15007): Model QBC856B has negative VJC.

ERROR(ORPSIM-15007): Model QBC856B has negative VJC.

ERROR(ORPSIM-15007): Model QBC856B has negative VJC.

ERROR(ORPSIM-15007): Model QBC856B has negative VJC.

ERROR(ORPSIM-15007): Model QBC856B has negative VJC.

ERROR(ORPSIM-15007): Model QBC856B has negative VJC.

ERROR(ORPSIM-15007): Model QBC856B has negative VJC.

ERROR(ORPSIM-15007): Model QBC856B has negative VJC.

ERROR(ORPSIM-15007): Model QBC856B has negative VJC.

ERROR(ORPSIM-15007): Model QBC856B has negative VJC.

ERROR(ORPSIM-15007): Model QBC856B has negative VJC.

ERROR(ORPSIM-15007): Model QBC856B has negative VJC.

ERROR(ORPSIM-15007): Model QBC856B has negative VJC.

ERROR(ORPSIM-15007): Model QBC856B has negative VJC.

ERROR(ORPSIM-15007): Model QBC856B has negative VJC.

ERROR(ORPSIM-15007): Model QBC856B has negative VJC.

ERROR(ORPSIM-15007): Model QBC856B has negative VJC.

ERROR(ORPSIM-15007): Model QBC856B has negative VJC.

ERROR(ORPSIM-15007): Model QBC856B has negative VJC.

ERROR(ORPSIM-15007): Model QBC856B has negative VJC.

ERROR(ORPSIM-15007): Model QBC856B has negative VJC.

ERROR(ORPSIM-15007): Model QBC856B has negative VJC.

ERROR(ORPSIM-15007): Model QBC856B has negative VJC.

ERROR(ORPSIM-15007): Model QBC856B has negative VJC.

ERROR(ORPSIM-15007): Model QBC856B has negative VJC.

ERROR(ORPSIM-15007): Model QBC856B has negative VJC.

ERROR(ORPSIM-15007): Model QBC856B has negative VJC.

ERROR(ORPSIM-15007): Model QBC856B has negative VJC.

ERROR(ORPSIM-15007): Model QBC856B has negative VJC.

ERROR(ORPSIM-15007): Model QBC856B has negative VJC.

ERROR(ORPSIM-15007): Model QBC856B has negative VJC.

ERROR(ORPSIM-15007): Model QBC856B has negative VJC.

ERROR(ORPSIM-15007): Model QBC856B has negative VJC.

ERROR(ORPSIM-15007): Model QBC856B has negative VJC.

ERROR(ORPSIM-15007): Model QBC856B has negative VJC.

ERROR(ORPSIM-15007): Model QBC856B has negative VJC.

ERROR(ORPSIM-15007): Model QBC856B has negative VJC.

ERROR(ORPSIM-15007): Model QBC856B has negative VJC.

ERROR(ORPSIM-15007): Model QBC856B has negative VJC.

ERROR(ORPSIM-15007): Model QBC856B has negative VJC.

ERROR(ORPSIM-15007): Model QBC856B has negative VJC.

ERROR(ORPSIM-15007): Model QBC856B has negative VJC.

ERROR(ORPSIM-15007): Model QBC856B has negative VJC.

ERROR(ORPSIM-15007): Model QBC856B has negative VJC.

ERROR(ORPSIM-15007): Model QBC856B has negative VJC.

ERROR(ORPSIM-15007): Model QBC856B has negative VJC.

ERROR(ORPSIM-15007): Model QBC856B has negative VJC.

ERROR(ORPSIM-15007): Model QBC856B has negative VJC.

ERROR(ORPSIM-15007): Model QBC856B has negative VJC.

ERROR(ORPSIM-15007): Model QBC856B has negative VJC.

ERROR(ORPSIM-15007): Model QBC856B has negative VJC.

ERROR(ORPSIM-15007): Model QBC856B has negative VJC.

ERROR(ORPSIM-15007): Model QBC856B has negative VJC.

ERROR(ORPSIM-15007): Model QBC856B has negative VJC.

ERROR(ORPSIM-15007): Model QBC856B has negative VJC.

ERROR(ORPSIM-15007): Model QBC856B has negative VJC.

ERROR(ORPSIM-15007): Model QBC856B has negative VJC.

ERROR(ORPSIM-15007): Model QBC856B has negative VJC.

ERROR(ORPSIM-15007): Model QBC856B has negative VJC.

ERROR(ORPSIM-15007): Model QBC856B has negative VJC.

ERROR(ORPSIM-15007): Model QBC856B has negative VJC.

ERROR(ORPSIM-15007): Model QBC856B has negative VJC.

ERROR(ORPSIM-15007): Model QBC856B has negative VJC.

ERROR(ORPSIM-15007): Model QBC856B has negative VJC.

ERROR(ORPSIM-15007): Model QBC856B has negative VJC.

ERROR(ORPSIM-15007): Model QBC856B has negative VJC.

ERROR(ORPSIM-15007): Model QBC856B has negative VJC.

ERROR(ORPSIM-15007): Model QBC856B has negative VJC.

ERROR(ORPSIM-15007): Model QBC856B has negative VJC.

ERROR(ORPSIM-15007): Model QBC856B has negative VJC.

ERROR(ORPSIM-15007): Model QBC856B has negative VJC.

ERROR(ORPSIM-15007): Model QBC856B has negative VJC.

ERROR(ORPSIM-15007): Model QBC856B has negative VJC.

ERROR(ORPSIM-15007): Model QBC856B has negative VJC.

ERROR(ORPSIM-15007): Model QBC856B has negative VJC.

ERROR(ORPSIM-15007): Model QBC856B has negative VJC.

ERROR(ORPSIM-15007): Model QBC856B has negative VJC.

ERROR(ORPSIM-15007): Model QBC856B has negative VJC.

ERROR(ORPSIM-15007): Model QBC856B has negative VJC.

ERROR(ORPSIM-15007): Model QBC856B has negative VJC.

ERROR(ORPSIM-15007): Model QBC856B has negative VJC.

ERROR(ORPSIM-15007): Model QBC856B has negative VJC.

ERROR(ORPSIM-15007): Model QBC856B has negative VJC.

ERROR(ORPSIM-15007): Model QBC856B has negative VJC.

ERROR(ORPSIM-15007): Model QBC856B has negative VJC.

ERROR(ORPSIM-15007): Model QBC856B has negative VJC.

ERROR(ORPSIM-15007): Model QBC856B has negative VJC.

ERROR(ORPSIM-15007): Model QBC856B has negative VJC.

ERROR(ORPSIM-15007): Model QBC856B has negative VJC.

ERROR(ORPSIM-15007): Model QBC856B has negative VJC.

ERROR(ORPSIM-15007): Model QBC856B has negative VJC.

ERROR(ORPSIM-15007): Model QBC856B has negative VJC.

ERROR(ORPSIM-15007): Model QBC856B has negative VJC.

ERROR(ORPSIM-15007): Model QBC856B has negative VJC.

ERROR(ORPSIM-15007): Model QBC856B has negative VJC.

ERROR(ORPSIM-15007): Model QBC856B has negative VJC.

ERROR(ORPSIM-15007): Model QBC856B has negative VJC.

ERROR(ORPSIM-15007): Model QBC856B has negative VJC.

ERROR(ORPSIM-15007): Model QBC856B has negative VJC.

ERROR(ORPSIM-15007): Model QBC856B has negative VJC.

ERROR(ORPSIM-15007): Model QBC856B has negative VJC.

ERROR(ORPSIM-15007): Model QBC856B has negative VJC.

ERROR(ORPSIM-15007): Model QBC856B has negative VJC.

ERROR(ORPSIM-15007): Model QBC856B has negative VJC.

ERROR(ORPSIM-15007): Model QBC856B has negative VJC.

ERROR(ORPSIM-15007): Model QBC856B has negative VJC.

ERROR(ORPSIM-15007): Model QBC856B has negative VJC.

ERROR(ORPSIM-15007): Model QBC856B has negative VJC.

ERROR(ORPSIM-15007): Model QBC856B has negative VJC.

ERROR(ORPSIM-15007): Model QBC856B has negative VJC.

ERROR(ORPSIM-15007): Model QBC856B has negative VJC.

ERROR(ORPSIM-15007): Model QBC856B has negative VJC.

ERROR(ORPSIM-15007): Model QBC856B has negative VJC.

ERROR(ORPSIM-15007): Model QBC856B has negative VJC.

ERROR(ORPSIM-15007): Model QBC856B has negative VJC.

ERROR(ORPSIM-15007): Model QBC856B has negative VJC.

ERROR(ORPSIM-15007): Model QBC856B has negative VJC.

ERROR(ORPSIM-15007): Model QBC856B has negative VJC.

ERROR(ORPSIM-15007): Model QBC856B has negative VJC.

ERROR(ORPSIM-15007): Model QBC856B has negative VJC.

ERROR(ORPSIM-15007): Model QBC856B has negative VJC.

ERROR(ORPSIM-15007): Model QBC856B has negative VJC.

ERROR(ORPSIM-15007): Model QBC856B has negative VJC.

ERROR(ORPSIM-15007): Model QBC856B has negative VJC.

ERROR(ORPSIM-15007): Model QBC856B has negative VJC.

ERROR(ORPSIM-15007): Model QBC856B has negative VJC.

ERROR(ORPSIM-15007): Model QBC856B has negative VJC.

ERROR(ORPSIM-15007): Model QBC856B has negative VJC.

ERROR(ORPSIM-15007): Model QBC856B has negative VJC.

ERROR(ORPSIM-15007): Model QBC856B has negative VJC.

ERROR(ORPSIM-15007): Model QBC856B has negative VJC.

ERROR(ORPSIM-15007): Model QBC856B has negative VJC.

ERROR(ORPSIM-15007): Model QBC856B has negative VJC.

ERROR(ORPSIM-15007): Model QBC856B has negative VJC.

ERROR(ORPSIM-15007): Model QBC856B has negative VJC.

ERROR(ORPSIM-15007): Model QBC856B has negative VJC.

ERROR(ORPSIM-15007): Model QBC856B has negative VJC.

ERROR(ORPSIM-15007): Model QBC856B has negative VJC.

ERROR(ORPSIM-15007): Model QBC856B has negative VJC.

ERROR(ORPSIM-15007): Model QBC856B has negative VJC.

ERROR(ORPSIM-15007): Model QBC856B has negative VJC.

ERROR(ORPSIM-15007): Model QBC856B has negative VJC.

ERROR(ORPSIM-15007): Model QBC856B has negative VJC.

ERROR(ORPSIM-15007): Model QBC856B has negative VJC.

ERROR(ORPSIM-15007): Model QBC856B has negative VJC.

ERROR(ORPSIM-15007): Model QBC856B has negative VJC.

ERROR(ORPSIM-15007): Model QBC856B has negative VJC.

ERROR(ORPSIM-15007): Model QBC856B has negative VJC.

ERROR(ORPSIM-15007): Model QBC856B has negative VJC.

ERROR(ORPSIM-15007): Model QBC856B has negative VJC.

ERROR(ORPSIM-15007): Model QBC856B has negative VJC.

ERROR(ORPSIM-15007): Model QBC856B has negative VJC.

ERROR(ORPSIM-15007): Model QBC856B has negative VJC.

ERROR(ORPSIM-15007): Model QBC856B has negative VJC.

ERROR(ORPSIM-15007): Model QBC856B has negative VJC.

ERROR(ORPSIM-15007): Model QBC856B has negative VJC.

ERROR(ORPSIM-15007): Model QBC856B has negative VJC.

ERROR(ORPSIM-15007): Model QBC856B has negative VJC.

ERROR(ORPSIM-15007): Model QBC856B has negative VJC.

ERROR(ORPSIM-15007): Model QBC856B has negative VJC.

ERROR(ORPSIM-15007): Model QBC856B has negative VJC.

ERROR(ORPSIM-15007): Model QBC856B has negative VJC.

ERROR(ORPSIM-15007): Model QBC856B has negative VJC.

ERROR(ORPSIM-15007): Model QBC856B has negative VJC.

ERROR(ORPSIM-15007): Model QBC856B has negative VJC.

ERROR(ORPSIM-15007): Model QBC856B has negative VJC.

ERROR(ORPSIM-15007): Model QBC856B has negative VJC.

ERROR(ORPSIM-15007): Model QBC856B has negative VJC.

ERROR(ORPSIM-15007): Model QBC856B has negative VJC.

ERROR(ORPSIM-15007): Model QBC856B has negative VJC.

ERROR(ORPSIM-15007): Model QBC856B has negative VJC.

ERROR(ORPSIM-15007): Model QBC856B has negative VJC.

ERROR(ORPSIM-15007): Model QBC856B has negative VJC.

ERROR(ORPSIM-15007): Model QBC856B has negative VJC.

ERROR(ORPSIM-15007): Model QBC856B has negative VJC.

ERROR(ORPSIM-15007): Model QBC856B has negative VJC.

ERROR(ORPSIM-15007): Model QBC856B has negative VJC.

ERROR(ORPSIM-15007): Model QBC856B has negative VJC.

ERROR(ORPSIM-15007): Model QBC856B has negative VJC.

ERROR(ORPSIM-15007): Model QBC856B has negative VJC.

ERROR(ORPSIM-15007): Model QBC856B has negative VJC.

ERROR(ORPSIM-15007): Model QBC856B has negative VJC.

ERROR(ORPSIM-15007): Model QBC856B has negative VJC.

ERROR(ORPSIM-15007): Model QBC856B has negative VJC.

ERROR(ORPSIM-15007): Model QBC856B has negative VJC.

ERROR(ORPSIM-15007): Model QBC856B has negative VJC.

ERROR(ORPSIM-15007): Model QBC856B has negative VJC.

ERROR(ORPSIM-15007): Model QBC856B has negative VJC.

ERROR(ORPSIM-15007): Model QBC856B has negative VJC.

ERROR(ORPSIM-15007): Model QBC856B has negative VJC.

ERROR(ORPSIM-15007): Model QBC856B has negative VJC.

ERROR(ORPSIM-15007): Model QBC856B has negative VJC.

ERROR(ORPSIM-15007): Model QBC856B has negative VJC.

ERROR(ORPSIM-15007): Model QBC856B has negative VJC.

ERROR(ORPSIM-15007): Model QBC856B has negative VJC.

ERROR(ORPSIM-15007): Model QBC856B has negative VJC.

ERROR(ORPSIM-15007): Model QBC856B has negative VJC.

ERROR(ORPSIM-15007): Model QBC856B has negative VJC.

ERROR(ORPSIM-15007): Model QBC856B has negative VJC.

ERROR(ORPSIM-15007): Model QBC856B has negative VJC.

ERROR(ORPSIM-15007): Model QBC856B has negative VJC.

ERROR(ORPSIM-15007): Model QBC856B has negative VJC.

ERROR(ORPSIM-15007): Model QBC856B has negative VJC.

ERROR(ORPSIM-15007): Model QBC856B has negative VJC.

ERROR(ORPSIM-15007): Model QBC856B has negative VJC.

ERROR(ORPSIM-15007): Model QBC856B has negative VJC.

ERROR(ORPSIM-15007): Model QBC856B has negative VJC.

ERROR(ORPSIM-15007): Model QBC856B has negative VJC.

ERROR(ORPSIM-15007): Model QBC856B has negative VJC.

ERROR(ORPSIM-15007): Model QBC856B has negative VJC.

ERROR(ORPSIM-15007): Model QBC856B has negative VJC.

ERROR(ORPSIM-15007): Model QBC856B has negative VJC.

ERROR(ORPSIM-15007): Model QBC856B has negative VJC.

ERROR(ORPSIM-15007): Model QBC856B has negative VJC.

ERROR(ORPSIM-15007): Model QBC856B has negative VJC.

ERROR(ORPSIM-15007): Model QBC856B has negative VJC.

ERROR(ORPSIM-15007): Model QBC856B has negative VJC.

ERROR(ORPSIM-15007): Model QBC856B has negative VJC.

ERROR(ORPSIM-15007): Model QBC856B has negative VJC.

ERROR(ORPSIM-15007): Model QBC856B has negative VJC.

ERROR(ORPSIM-15007): Model QBC856B has negative VJC.

ERROR(ORPSIM-15007): Model QBC856B has negative VJC.

ERROR(ORPSIM-15007): Model QBC856B has negative VJC.

ERROR(ORPSIM-15007): Model QBC856B has negative VJC.

ERROR(ORPSIM-15007): Model QBC856B has negative VJC.

ERROR(ORPSIM-15007): Model QBC856B has negative VJC.

ERROR(ORPSIM-15007): Model QBC856B has negative VJC.

ERROR(ORPSIM-15007): Model QBC856B has negative VJC.

ERROR(ORPSIM-15007): Model QBC856B has negative VJC.

ERROR(ORPSIM-15007): Model QBC856B has negative VJC.

ERROR(ORPSIM-15007): Model QBC856B has negative VJC.

ERROR(ORPSIM-15007): Model QBC856B has negative VJC.

ERROR(ORPSIM-15007): Model QBC856B has negative VJC.

ERROR(ORPSIM-15007): Model QBC856B has negative VJC.

ERROR(ORPSIM-15007): Model QBC856B has negative VJC.

ERROR(ORPSIM-15007): Model QBC856B has negative VJC.

ERROR(ORPSIM-15007): Model QBC856B has negative VJC.

ERROR(ORPSIM-15007): Model QBC856B has negative VJC.

ERROR(ORPSIM-15007): Model QBC856B has negative VJC.

ERROR(ORPSIM-15007): Model QBC856B has negative VJC.

ERROR(ORPSIM-15007): Model QBC856B has negative VJC.

ERROR(ORPSIM-15007): Model QBC856B has negative VJC.

ERROR(ORPSIM-15007): Model QBC856B has negative VJC.

ERROR(ORPSIM-15007): Model QBC856B has negative VJC.

ERROR(ORPSIM-15007): Model QBC856B has negative VJC.

ERROR(ORPSIM-15007): Model QBC856B has negative VJC.

ERROR(ORPSIM-15007): Model QBC856B has negative VJC.

ERROR(ORPSIM-15007): Model QBC856B has negative VJC.

ERROR(ORPSIM-15007): Model QBC856B has negative VJC.

ERROR(ORPSIM-15007): Model QBC856B has negative VJC.

ERROR(ORPSIM-15007): Model QBC856B has negative VJC.

ERROR(ORPSIM-15007): Model QBC856B has negative VJC.

ERROR(ORPSIM-15007): Model QBC856B has negative VJC.

ERROR(ORPSIM-15007): Model QBC856B has negative VJC.

ERROR(ORPSIM-15007): Model QBC856B has negative VJC.

ERROR(ORPSIM-15007): Model QBC856B has negative VJC.

ERROR(ORPSIM-15007): Model QBC856B has negative VJC.

ERROR(ORPSIM-15007): Model QBC856B has negative VJC.

ERROR(ORPSIM-15007): Model QBC856B has negative VJC.

ERROR(ORPSIM-15007): Model QBC856B has negative VJC.

ERROR(ORPSIM-15007): Model QBC856B has negative VJC.

ERROR(ORPSIM-15007): Model QBC856B has negative VJC.

ERROR(ORPSIM-15007): Model QBC856B has negative VJC.

ERROR(ORPSIM-15007): Model QBC856B has negative VJC.

ERROR(ORPSIM-15007): Model QBC856B has negative VJC.

ERROR(ORPSIM-15007): Model QBC856B has negative VJC.

ERROR(ORPSIM-15007): Model QBC856B has negative VJC.

ERROR(ORPSIM-15007): Model QBC856B has negative VJC.

ERROR(ORPSIM-15007): Model QBC856B has negative VJC.

ERROR(ORPSIM-15007): Model QBC856B has negative VJC.

ERROR(ORPSIM-15007): Model QBC856B has negative VJC.

ERROR(ORPSIM-15007): Model QBC856B has negative VJC.

ERROR(ORPSIM-15007): Model QBC856B has negative VJC.

ERROR(ORPSIM-15007): Model QBC856B has negative VJC.

ERROR(ORPSIM-15007): Model QBC856B has negative VJC.

ERROR(ORPSIM-15007): Model QBC856B has negative VJC.

ERROR(ORPSIM-15007): Model QBC856B has negative VJC.

ERROR(ORPSIM-15007): Model QBC856B has negative VJC.

ERROR(ORPSIM-15007): Model QBC856B has negative VJC.

ERROR(ORPSIM-15007): Model QBC856B has negative VJC.

ERROR(ORPSIM-15007): Model QBC856B has negative VJC.

ERROR(ORPSIM-15007): Model QBC856B has negative VJC.

ERROR(ORPSIM-15007): Model QBC856B has negative VJC.

ERROR(ORPSIM-15007): Model QBC856B has negative VJC.

ERROR(ORPSIM-15007): Model QBC856B has negative VJC.

ERROR(ORPSIM-15007): Model QBC856B has negative VJC.

ERROR(ORPSIM-15007): Model QBC856B has negative VJC.

ERROR(ORPSIM-15007): Model QBC856B has negative VJC.

ERROR(ORPSIM-15007): Model QBC856B has negative VJC.

ERROR(ORPSIM-15007): Model QBC856B has negative VJC.

ERROR(ORPSIM-15007): Model QBC856B has negative VJC.

ERROR(ORPSIM-15007): Model QBC856B has negative VJC.

ERROR(ORPSIM-15007): Model QBC856B has negative VJC.

ERROR(ORPSIM-15007): Model QBC856B has negative VJC.

ERROR(ORPSIM-15007): Model QBC856B has negative VJC.

ERROR(ORPSIM-15007): Model QBC856B has negative VJC.

ERROR(ORPSIM-15007): Model QBC856B has negative VJC.

ERROR(ORPSIM-15007): Model QBC856B has negative VJC.

ERROR(ORPSIM-15007): Model QBC856B has negative VJC.

ERROR(ORPSIM-15007): Model QBC856B has negative VJC.

ERROR(ORPSIM-15007): Model QBC856B has negative VJC.

ERROR(ORPSIM-15007): Model QBC856B has negative VJC.

ERROR(ORPSIM-15007): Model QBC856B has negative VJC.

ERROR(ORPSIM-15007): Model QBC856B has negative VJC.

ERROR(ORPSIM-15007): Model QBC856B has negative VJC.

ERROR(ORPSIM-15007): Model QBC856B has negative VJC.

ERROR(ORPSIM-15007): Model QBC856B has negative VJC.

ERROR(ORPSIM-15007): Model QBC856B has negative VJC.

ERROR(ORPSIM-15007): Model QBC856B has negative VJC.

ERROR(ORPSIM-15007): Model QBC856B has negative VJC.

ERROR(ORPSIM-15007): Model QBC856B has negative VJC.

ERROR(ORPSIM-15007): Model QBC856B has negative VJC.

ERROR(ORPSIM-15007): Model QBC856B has negative VJC.

ERROR(ORPSIM-15007): Model QBC856B has negative VJC.

ERROR(ORPSIM-15007): Model QBC856B has negative VJC.

ERROR(ORPSIM-15007): Model QBC856B has negative VJC.

ERROR(ORPSIM-15007): Model QBC856B has negative VJC.

ERROR(ORPSIM-15007): Model QBC856B has negative VJC.

ERROR(ORPSIM-15007): Model QBC856B has negative VJC.

ERROR(ORPSIM-15007): Model QBC856B has negative VJC.

ERROR(ORPSIM-15007): Model QBC856B has negative VJC.

ERROR(ORPSIM-15007): Model QBC856B has negative VJC.

ERROR(ORPSIM-15007): Model QBC856B has negative VJC.

ERROR(ORPSIM-15007): Model QBC856B has negative VJC.

ERROR(ORPSIM-15007): Model QBC856B has negative VJC.

ERROR(ORPSIM-15007): Model QBC856B has negative VJC.

ERROR(ORPSIM-15007): Model QBC856B has negative VJC.

ERROR(ORPSIM-15007): Model QBC856B has negative VJC.

ERROR(ORPSIM-15007): Model QBC856B has negative VJC.

ERROR(ORPSIM-15007): Model QBC856B has negative VJC.

ERROR(ORPSIM-15007): Model QBC856B has negative VJC.

ERROR(ORPSIM-15007): Model QBC856B has negative VJC.

ERROR(ORPSIM-15007): Model QBC856B has negative VJC.

ERROR(ORPSIM-15007): Model QBC856B has negative VJC.

ERROR(ORPSIM-15007): Model QBC856B has negative VJC.

ERROR(ORPSIM-15007): Model QBC856B has negative VJC.

ERROR(ORPSIM-15007): Model QBC856B has negative VJC.

ERROR(ORPSIM-15007): Model QBC856B has negative VJC.

ERROR(ORPSIM-15007): Model QBC856B has negative VJC.

ERROR(ORPSIM-15007): Model QBC856B has negative VJC.

ERROR(ORPSIM-15007): Model QBC856B has negative VJC.

ERROR(ORPSIM-15007): Model QBC856B has negative VJC.

ERROR(ORPSIM-15007): Model QBC856B has negative VJC.

ERROR(ORPSIM-15007): Model QBC856B has negative VJC.

ERROR(ORPSIM-15007): Model QBC856B has negative VJC.

ERROR(ORPSIM-15007): Model QBC856B has negative VJC.

ERROR(ORPSIM-15007): Model QBC856B has negative VJC.

ERROR(ORPSIM-15007): Model QBC856B has negative VJC.

ERROR(ORPSIM-15007): Model QBC856B has negative VJC.

ERROR(ORPSIM-15007): Model QBC856B has negative VJC.

ERROR(ORPSIM-15007): Model QBC856B has negative VJC.

ERROR(ORPSIM-15007): Model QBC856B has negative VJC.

ERROR(ORPSIM-15007): Model QBC856B has negative VJC.

ERROR(ORPSIM-15007): Model QBC856B has negative VJC.

ERROR(ORPSIM-15007): Model QBC856B has negative VJC.

ERROR(ORPSIM-15007): Model QBC856B has negative VJC.

ERROR(ORPSIM-15007): Model QBC856B has negative VJC.

ERROR(ORPSIM-15007): Model QBC856B has negative VJC.

ERROR(ORPSIM-15007): Model QBC856B has negative VJC.

ERROR(ORPSIM-15007): Model QBC856B has negative VJC.

ERROR(ORPSIM-15007): Model QBC856B has negative VJC.

ERROR(ORPSIM-15007): Model QBC856B has negative VJC.

ERROR(ORPSIM-15007): Model QBC856B has negative VJC.

ERROR(ORPSIM-15007): Model QBC856B has negative VJC.

ERROR(ORPSIM-15007): Model QBC856B has negative VJC.

ERROR(ORPSIM-15007): Model QBC856B has negative VJC.

ERROR(ORPSIM-15007): Model QBC856B has negative VJC.

ERROR(ORPSIM-15007): Model QBC856B has negative VJC.

ERROR(ORPSIM-15007): Model QBC856B has negative VJC.

ERROR(ORPSIM-15007): Model QBC856B has negative VJC.

ERROR(ORPSIM-15007): Model QBC856B has negative VJC.

ERROR(ORPSIM-15007): Model QBC856B has negative VJC.

ERROR(ORPSIM-15007): Model QBC856B has negative VJC.

ERROR(ORPSIM-15007): Model QBC856B has negative VJC.

ERROR(ORPSIM-15007): Model QBC856B has negative VJC.

ERROR(ORPSIM-15007): Model QBC856B has negative VJC.

ERROR(ORPSIM-15007): Model QBC856B has negative VJC.

ERROR(ORPSIM-15007): Model QBC856B has negative VJC.

ERROR(ORPSIM-15007): Model QBC856B has negative VJC.

ERROR(ORPSIM-15007): Model QBC856B has negative VJC.

ERROR(ORPSIM-15007): Model QBC856B has negative VJC.

ERROR(ORPSIM-15007): Model QBC856B has negative VJC.

ERROR(ORPSIM-15007): Model QBC856B has negative VJC.

ERROR(ORPSIM-15007): Model QBC856B has negative VJC.

ERROR(ORPSIM-15007): Model QBC856B has negative VJC.

ERROR(ORPSIM-15007): Model QBC856B has negative VJC.

ERROR(ORPSIM-15007): Model QBC856B has negative VJC.

ERROR(ORPSIM-15007): Model QBC856B has negative VJC.

ERROR(ORPSIM-15007): Model QBC856B has negative VJC.

ERROR(ORPSIM-15007): Model QBC856B has negative VJC.

ERROR(ORPSIM-15007): Model QBC856B has negative VJC.

ERROR(ORPSIM-15007): Model QBC856B has negative VJC.

ERROR(ORPSIM-15007): Model QBC856B has negative VJC.

ERROR(ORPSIM-15007): Model QBC856B has negative VJC.

ERROR(ORPSIM-15007): Model QBC856B has negative VJC.

ERROR(ORPSIM-15007): Model QBC856B has negative VJC.

ERROR(ORPSIM-15007): Model QBC856B has negative VJC.

ERROR(ORPSIM-15007): Model QBC856B has negative VJC.

ERROR(ORPSIM-15007): Model QBC856B has negative VJC.

ERROR(ORPSIM-15007): Model QBC856B has negative VJC.

ERROR(ORPSIM-15007): Model QBC856B has negative VJC.

ERROR(ORPSIM-15007): Model QBC856B has negative VJC.

ERROR(ORPSIM-15007): Model QBC856B has negative VJC.

ERROR(ORPSIM-15007): Model QBC856B has negative VJC.

ERROR(ORPSIM-15007): Model QBC856B has negative VJC.

ERROR(ORPSIM-15007): Model QBC856B has negative VJC.

ERROR(ORPSIM-15007): Model QBC856B has negative VJC.

ERROR(ORPSIM-15007): Model QBC856B has negative VJC.

ERROR(ORPSIM-15007): Model QBC856B has negative VJC.

ERROR(ORPSIM-15007): Model QBC856B has negative VJC.

ERROR(ORPSIM-15007): Model QBC856B has negative VJC.

ERROR(ORPSIM-15007): Model QBC856B has negative VJC.

ERROR(ORPSIM-15007): Model QBC856B has negative VJC.

ERROR(ORPSIM-15007): Model QBC856B has negative VJC.

ERROR(ORPSIM-15007): Model QBC856B has negative VJC.

ERROR(ORPSIM-15007): Model QBC856B has negative VJC.

ERROR(ORPSIM-15007): Model QBC856B has negative VJC.

ERROR(ORPSIM-15007): Model QBC856B has negative VJC.

ERROR(ORPSIM-15007): Model QBC856B has negative VJC.

ERROR(ORPSIM-15007): Model QBC856B has negative VJC.

ERROR(ORPSIM-15007): Model QBC856B has negative VJC.

ERROR(ORPSIM-15007): Model QBC856B has negative VJC.

ERROR(ORPSIM-15007): Model QBC856B has negative VJC.

ERROR(ORPSIM-15007): Model QBC856B has negative VJC.

ERROR(ORPSIM-15007): Model QBC856B has negative VJC.

ERROR(ORPSIM-15007): Model QBC856B has negative VJC.

ERROR(ORPSIM-15007): Model QBC856B has negative VJC.

ERROR(ORPSIM-15007): Model QBC856B has negative VJC.

ERROR(ORPSIM-15007): Model QBC856B has negative VJC.

ERROR(ORPSIM-15007): Model QBC856B has negative VJC.

ERROR(ORPSIM-15007): Model QBC856B has negative VJC.

ERROR(ORPSIM-15007): Model QBC856B has negative VJC.

ERROR(ORPSIM-15007): Model QBC856B has negative VJC.

ERROR(ORPSIM-15007): Model QBC856B has negative VJC.

ERROR(ORPSIM-15007): Model QBC856B has negative VJC.

ERROR(ORPSIM-15007): Model QBC856B has negative VJC.

ERROR(ORPSIM-15007): Model QBC856B has negative VJC.

ERROR(ORPSIM-15007): Model QBC856B has negative VJC.

ERROR(ORPSIM-15007): Model QBC856B has negative VJC.

ERROR(ORPSIM-15007): Model QBC856B has negative VJC.

ERROR(ORPSIM-15007): Model QBC856B has negative VJC.

ERROR(ORPSIM-15007): Model QBC856B has negative VJC.

ERROR(ORPSIM-15007): Model QBC856B has negative VJC.

ERROR(ORPSIM-15007): Model QBC856B has negative VJC.

ERROR(ORPSIM-15007): Model QBC856B has negative VJC.

ERROR(ORPSIM-15007): Model QBC856B has negative VJC.

ERROR(ORPSIM-15007): Model QBC856B has negative VJC.

ERROR(ORPSIM-15007): Model QBC856B has negative VJC.

ERROR(ORPSIM-15007): Model QBC856B has negative VJC.

ERROR(ORPSIM-15007): Model QBC856B has negative VJC.

ERROR(ORPSIM-15007): Model QBC856B has negative VJC.

ERROR(ORPSIM-15007): Model QBC856B has negative VJC.

ERROR(ORPSIM-15007): Model QBC856B has negative VJC.

ERROR(ORPSIM-15007): Model QBC856B has negative VJC.

ERROR(ORPSIM-15007): Model QBC856B has negative VJC.

ERROR(ORPSIM-15007): Model QBC856B has negative VJC.

ERROR(ORPSIM-15007): Model QBC856B has negative VJC.

ERROR(ORPSIM-15007): Model QBC856B has negative VJC.

ERROR(ORPSIM-15007): Model QBC856B has negative VJC.

ERROR(ORPSIM-15007): Model QBC856B has negative VJC.

ERROR(ORPSIM-15007): Model QBC856B has negative VJC.

ERROR(ORPSIM-15007): Model QBC856B has negative VJC.

ERROR(ORPSIM-15007): Model QBC856B has negative VJC.

ERROR(ORPSIM-15007): Model QBC856B has negative VJC.

ERROR(ORPSIM-15007): Model QBC856B has negative VJC.

ERROR(ORPSIM-15007): Model QBC856B has negative VJC.

ERROR(ORPSIM-15007): Model QBC856B has negative VJC.

ERROR(ORPSIM-15007): Model QBC856B has negative VJC.

ERROR(ORPSIM-15007): Model QBC856B has negative VJC.

ERROR(ORPSIM-15007): Model QBC856B has negative VJC.

ERROR(ORPSIM-15007): Model QBC856B has negative VJC.

ERROR(ORPSIM-15007): Model QBC856B has negative VJC.

ERROR(ORPSIM-15007): Model QBC856B has negative VJC.

ERROR(ORPSIM-15007): Model QBC856B has negative VJC.

ERROR(ORPSIM-15007): Model QBC856B has negative VJC.

ERROR(ORPSIM-15007): Model QBC856B has negative VJC.

ERROR(ORPSIM-15007): Model QBC856B has negative VJC.

ERROR(ORPSIM-15007): Model QBC856B has negative VJC.

ERROR(ORPSIM-15007): Model QBC856B has negative VJC.

ERROR(ORPSIM-15007): Model QBC856B has negative VJC.

ERROR(ORPSIM-15007): Model QBC856B has negative VJC.

ERROR(ORPSIM-15007): Model QBC856B has negative VJC.

ERROR(ORPSIM-15007): Model QBC856B has negative VJC.

ERROR(ORPSIM-15007): Model QBC856B has negative VJC.

ERROR(ORPSIM-15007): Model QBC856B has negative VJC.

ERROR(ORPSIM-15007): Model QBC856B has negative VJC.

ERROR(ORPSIM-15007): Model QBC856B has negative VJC.

ERROR(ORPSIM-15007): Model QBC856B has negative VJC.

ERROR(ORPSIM-15007): Model QBC856B has negative VJC.

ERROR(ORPSIM-15007): Model QBC856B has negative VJC.

ERROR(ORPSIM-15007): Model QBC856B has negative VJC.

ERROR(ORPSIM-15007): Model QBC856B has negative VJC.

ERROR(ORPSIM-15007): Model QBC856B has negative VJC.

ERROR(ORPSIM-15007): Model QBC856B has negative VJC.

ERROR(ORPSIM-15007): Model QBC856B has negative VJC.

ERROR(ORPSIM-15007): Model QBC856B has negative VJC.

ERROR(ORPSIM-15007): Model QBC856B has negative VJC.

ERROR(ORPSIM-15007): Model QBC856B has negative VJC.

ERROR(ORPSIM-15007): Model QBC856B has negative VJC.

ERROR(ORPSIM-15007): Model QBC856B has negative VJC.

ERROR(ORPSIM-15007): Model QBC856B has negative VJC.

ERROR(ORPSIM-15007): Model QBC856B has negative VJC.

ERROR(ORPSIM-15007): Model QBC856B has negative VJC.

ERROR(ORPSIM-15007): Model QBC856B has negative VJC.

ERROR(ORPSIM-15007): Model QBC856B has negative VJC.

ERROR(ORPSIM-15007): Model QBC856B has negative VJC.

ERROR(ORPSIM-15007): Model QBC856B has negative VJC.

ERROR(ORPSIM-15007): Model QBC856B has negative VJC.

ERROR(ORPSIM-15007): Model QBC856B has negative VJC.

ERROR(ORPSIM-15007): Model QBC856B has negative VJC.

ERROR(ORPSIM-15007): Model QBC856B has negative VJC.

ERROR(ORPSIM-15007): Model QBC856B has negative VJC.

ERROR(ORPSIM-15007): Model QBC856B has negative VJC.

ERROR(ORPSIM-15007): Model QBC856B has negative VJC.

ERROR(ORPSIM-15007): Model QBC856B has negative VJC.

ERROR(ORPSIM-15007): Model QBC856B has negative VJC.

ERROR(ORPSIM-15007): Model QBC856B has negative VJC.

ERROR(ORPSIM-15007): Model QBC856B has negative VJC.

ERROR(ORPSIM-15007): Model QBC856B has negative VJC.

ERROR(ORPSIM-15007): Model QBC856B has negative VJC.

ERROR(ORPSIM-15007): Model QBC856B has negative VJC.

ERROR(ORPSIM-15007): Model QBC856B has negative VJC.

ERROR(ORPSIM-15007): Model QBC856B has negative VJC.

ERROR(ORPSIM-15007): Model QBC856B has negative VJC.

ERROR(ORPSIM-15007): Model QBC856B has negative VJC.

ERROR(ORPSIM-15007): Model QBC856B has negative VJC.

ERROR(ORPSIM-15007): Model QBC856B has negative VJC.

ERROR(ORPSIM-15007): Model QBC856B has negative VJC.

ERROR(ORPSIM-15007): Model QBC856B has negative VJC.

ERROR(ORPSIM-15007): Model QBC856B has negative VJC.

ERROR(ORPSIM-15007): Model QBC856B has negative VJC.

ERROR(ORPSIM-15007): Model QBC856B has negative VJC.

ERROR(ORPSIM-15007): Model QBC856B has negative VJC.

ERROR(ORPSIM-15007): Model QBC856B has negative VJC.

ERROR(ORPSIM-15007): Model QBC856B has negative VJC.

ERROR(ORPSIM-15007): Model QBC856B has negative VJC.

ERROR(ORPSIM-15007): Model QBC856B has negative VJC.

ERROR(ORPSIM-15007): Model QBC856B has negative VJC.

ERROR(ORPSIM-15007): Model QBC856B has negative VJC.

ERROR(ORPSIM-15007): Model QBC856B has negative VJC.

ERROR(ORPSIM-15007): Model QBC856B has negative VJC.

ERROR(ORPSIM-15007): Model QBC856B has negative VJC.

ERROR(ORPSIM-15007): Model QBC856B has negative VJC.

ERROR(ORPSIM-15007): Model QBC856B has negative VJC.

ERROR(ORPSIM-15007): Model QBC856B has negative VJC.

ERROR(ORPSIM-15007): Model QBC856B has negative VJC.

ERROR(ORPSIM-15007): Model QBC856B has negative VJC.

ERROR(ORPSIM-15007): Model QBC856B has negative VJC.

ERROR(ORPSIM-15007): Model QBC856B has negative VJC.

ERROR(ORPSIM-15007): Model QBC856B has negative VJC.

ERROR(ORPSIM-15007): Model QBC856B has negative VJC.

ERROR(ORPSIM-15007): Model QBC856B has negative VJC.

ERROR(ORPSIM-15007): Model QBC856B has negative VJC.

ERROR(ORPSIM-15007): Model QBC856B has negative VJC.

ERROR(ORPSIM-15007): Model QBC856B has negative VJC.

ERROR(ORPSIM-15007): Model QBC856B has negative VJC.

ERROR(ORPSIM-15007): Model QBC856B has negative VJC.

ERROR(ORPSIM-15007): Model QBC856B has negative VJC.

ERROR(ORPSIM-15007): Model QBC856B has negative VJC.

ERROR(ORPSIM-15007): Model QBC856B has negative VJC.

ERROR(ORPSIM-15007): Model QBC856B has negative VJC.

ERROR(ORPSIM-15007): Model QBC856B has negative VJC.

ERROR(ORPSIM-15007): Model QBC856B has negative VJC.

ERROR(ORPSIM-15007): Model QBC856B has negative VJC.

ERROR(ORPSIM-15007): Model QBC856B has negative VJC.

ERROR(ORPSIM-15007): Model QBC856B has negative VJC.

ERROR(ORPSIM-15007): Model QBC856B has negative VJC.

ERROR(ORPSIM-15007): Model QBC856B has negative VJC.

ERROR(ORPSIM-15007): Model QBC856B has negative VJC.

ERROR(ORPSIM-15007): Model QBC856B has negative VJC.

ERROR(ORPSIM-15007): Model QBC856B has negative VJC.

ERROR(ORPSIM-15007): Model QBC856B has negative VJC.

ERROR(ORPSIM-15007): Model QBC856B has negative VJC.

ERROR(ORPSIM-15007): Model QBC856B has negative VJC.

ERROR(ORPSIM-15007): Model QBC856B has negative VJC.

ERROR(ORPSIM-15007): Model QBC856B has negative VJC.

ERROR(ORPSIM-15007): Model QBC856B has negative VJC.

ERROR(ORPSIM-15007): Model QBC856B has negative VJC.

ERROR(ORPSIM-15007): Model QBC856B has negative VJC.

ERROR(ORPSIM-15007): Model QBC856B has negative VJC.

ERROR(ORPSIM-15007): Model QBC856B has negative VJC.

ERROR(ORPSIM-15007): Model QBC856B has negative VJC.

ERROR(ORPSIM-15007): Model QBC856B has negative VJC.

ERROR(ORPSIM-15007): Model QBC856B has negative VJC.

ERROR(ORPSIM-15007): Model QBC856B has negative VJC.

ERROR(ORPSIM-15007): Model QBC856B has negative VJC.

ERROR(ORPSIM-15007): Model QBC856B has negative VJC.

ERROR(ORPSIM-15007): Model QBC856B has negative VJC.

ERROR(ORPSIM-15007): Model QBC856B has negative VJC.

ERROR(ORPSIM-15007): Model QBC856B has negative VJC.

ERROR(ORPSIM-15007): Model QBC856B has negative VJC.

ERROR(ORPSIM-15007): Model QBC856B has negative VJC.

ERROR(ORPSIM-15007): Model QBC856B has negative VJC.

ERROR(ORPSIM-15007): Model QBC856B has negative VJC.

ERROR(ORPSIM-15007): Model QBC856B has negative VJC.

ERROR(ORPSIM-15007): Model QBC856B has negative VJC.

ERROR(ORPSIM-15007): Model QBC856B has negative VJC.

ERROR(ORPSIM-15007): Model QBC856B has negative VJC.

ERROR(ORPSIM-15007): Model QBC856B has negative VJC.

ERROR(ORPSIM-15007): Model QBC856B has negative VJC.

ERROR(ORPSIM-15007): Model QBC856B has negative VJC.

ERROR(ORPSIM-15007): Model QBC856B has negative VJC.

ERROR(ORPSIM-15007): Model QBC856B has negative VJC.

ERROR(ORPSIM-15007): Model QBC856B has negative VJC.

ERROR(ORPSIM-15007): Model QBC856B has negative VJC.

ERROR(ORPSIM-15007): Model QBC856B has negative VJC.

ERROR(ORPSIM-15007): Model QBC856B has negative VJC.

ERROR(ORPSIM-15007): Model QBC856B has negative VJC.

ERROR(ORPSIM-15007): Model QBC856B has negative VJC.

ERROR(ORPSIM-15007): Model QBC856B has negative VJC.

ERROR(ORPSIM-15007): Model QBC856B has negative VJC.

ERROR(ORPSIM-15007): Model QBC856B has negative VJC.

ERROR(ORPSIM-15007): Model QBC856B has negative VJC.

ERROR(ORPSIM-15007): Model QBC856B has negative VJC.

ERROR(ORPSIM-15007): Model QBC856B has negative VJC.

ERROR(ORPSIM-15007): Model QBC856B has negative VJC.

ERROR(ORPSIM-15007): Model QBC856B has negative VJC.

ERROR(ORPSIM-15007): Model QBC856B has negative VJC.

ERROR(ORPSIM-15007): Model QBC856B has negative VJC.

ERROR(ORPSIM-15007): Model QBC856B has negative VJC.

ERROR(ORPSIM-15007): Model QBC856B has negative VJC.

ERROR(ORPSIM-15007): Model QBC856B has negative VJC.

ERROR(ORPSIM-15007): Model QBC856B has negative VJC.

ERROR(ORPSIM-15007): Model QBC856B has negative VJC.

ERROR(ORPSIM-15007): Model QBC856B has negative VJC.

ERROR(ORPSIM-15007): Model QBC856B has negative VJC.

ERROR(ORPSIM-15007): Model QBC856B has negative VJC.

ERROR(ORPSIM-15007): Model QBC856B has negative VJC.

ERROR(ORPSIM-15007): Model QBC856B has negative VJC.

ERROR(ORPSIM-15007): Model QBC856B has negative VJC.

ERROR(ORPSIM-15007): Model QBC856B has negative VJC.

ERROR(ORPSIM-15007): Model QBC856B has negative VJC.

ERROR(ORPSIM-15007): Model QBC856B has negative VJC.

ERROR(ORPSIM-15007): Model QBC856B has negative VJC.

ERROR(ORPSIM-15007): Model QBC856B has negative VJC.

ERROR(ORPSIM-15007): Model QBC856B has negative VJC.

ERROR(ORPSIM-15007): Model QBC856B has negative VJC.

ERROR(ORPSIM-15007): Model QBC856B has negative VJC.

ERROR(ORPSIM-15007): Model QBC856B has negative VJC.

ERROR(ORPSIM-15007): Model QBC856B has negative VJC.

ERROR(ORPSIM-15007): Model QBC856B has negative VJC.

ERROR(ORPSIM-15007): Model QBC856B has negative VJC.

ERROR(ORPSIM-15007): Model QBC856B has negative VJC.

ERROR(ORPSIM-15007): Model QBC856B has negative VJC.

ERROR(ORPSIM-15007): Model QBC856B has negative VJC.

ERROR(ORPSIM-15007): Model QBC856B has negative VJC.

ERROR(ORPSIM-15007): Model QBC856B has negative VJC.

ERROR(ORPSIM-15007): Model QBC856B has negative VJC.

ERROR(ORPSIM-15007): Model QBC856B has negative VJC.

ERROR(ORPSIM-15007): Model QBC856B has negative VJC.

ERROR(ORPSIM-15007): Model QBC856B has negative VJC.

ERROR(ORPSIM-15007): Model QBC856B has negative VJC.

ERROR(ORPSIM-15007): Model QBC856B has negative VJC.

ERROR(ORPSIM-15007): Model QBC856B has negative VJC.

ERROR(ORPSIM-15007): Model QBC856B has negative VJC.

ERROR(ORPSIM-15007): Model QBC856B has negative VJC.

ERROR(ORPSIM-15007): Model QBC856B has negative VJC.

ERROR(ORPSIM-15007): Model QBC856B has negative VJC.

ERROR(ORPSIM-15007): Model QBC856B has negative VJC.

ERROR(ORPSIM-15007): Model QBC856B has negative VJC.

ERROR(ORPSIM-15007): Model QBC856B has negative VJC.

ERROR(ORPSIM-15007): Model QBC856B has negative VJC.

ERROR(ORPSIM-15007): Model QBC856B has negative VJC.

ERROR(ORPSIM-15007): Model QBC856B has negative VJC.

ERROR(ORPSIM-15007): Model QBC856B has negative VJC.

ERROR(ORPSIM-15007): Model QBC856B has negative VJC.

ERROR(ORPSIM-15007): Model QBC856B has negative VJC.

ERROR(ORPSIM-15007): Model QBC856B has negative VJC.

ERROR(ORPSIM-15007): Model QBC856B has negative VJC.

ERROR(ORPSIM-15007): Model QBC856B has negative VJC.

ERROR(ORPSIM-15007): Model QBC856B has negative VJC.

ERROR(ORPSIM-15007): Model QBC856B has negative VJC.

ERROR(ORPSIM-15007): Model QBC856B has negative VJC.

ERROR(ORPSIM-15007): Model QBC856B has negative VJC.

ERROR(ORPSIM-15007): Model QBC856B has negative VJC.

ERROR(ORPSIM-15007): Model QBC856B has negative VJC.

ERROR(ORPSIM-15007): Model QBC856B has negative VJC.

ERROR(ORPSIM-15007): Model QBC856B has negative VJC.

ERROR(ORPSIM-15007): Model QBC856B has negative VJC.

ERROR(ORPSIM-15007): Model QBC856B has negative VJC.

ERROR(ORPSIM-15007): Model QBC856B has negative VJC.

ERROR(ORPSIM-15007): Model QBC856B has negative VJC.

ERROR(ORPSIM-15007): Model QBC856B has negative VJC.

ERROR(ORPSIM-15007): Model QBC856B has negative VJC.

ERROR(ORPSIM-15007): Model QBC856B has negative VJC.

ERROR(ORPSIM-15007): Model QBC856B has negative VJC.

ERROR(ORPSIM-15007): Model QBC856B has negative VJC.

ERROR(ORPSIM-15007): Model QBC856B has negative VJC.

ERROR(ORPSIM-15007): Model QBC856B has negative VJC.

ERROR(ORPSIM-15007): Model QBC856B has negative VJC.

ERROR(ORPSIM-15007): Model QBC856B has negative VJC.

ERROR(ORPSIM-15007): Model QBC856B has negative VJC.

ERROR(ORPSIM-15007): Model QBC856B has negative VJC.

ERROR(ORPSIM-15007): Model QBC856B has negative VJC.

ERROR(ORPSIM-15007): Model QBC856B has negative VJC.

ERROR(ORPSIM-15007): Model QBC856B has negative VJC.

ERROR(ORPSIM-15007): Model QBC856B has negative VJC.

ERROR(ORPSIM-15007): Model QBC856B has negative VJC.

ERROR(ORPSIM-15007): Model QBC856B has negative VJC.

ERROR(ORPSIM-15007): Model QBC856B has negative VJC.

ERROR(ORPSIM-15007): Model QBC856B has negative VJC.

ERROR(ORPSIM-15007): Model QBC856B has negative VJC.

ERROR(ORPSIM-15007): Model QBC856B has negative VJC.

ERROR(ORPSIM-15007): Model QBC856B has negative VJC.

ERROR(ORPSIM-15007): Model QBC856B has negative VJC.

ERROR(ORPSIM-15007): Model QBC856B has negative VJC.

ERROR(ORPSIM-15007): Model QBC856B has negative VJC.

ERROR(ORPSIM-15007): Model QBC856B has negative VJC.

ERROR(ORPSIM-15007): Model QBC856B has negative VJC.

ERROR(ORPSIM-15007): Model QBC856B has negative VJC.

ERROR(ORPSIM-15007): Model QBC856B has negative VJC.

ERROR(ORPSIM-15007): Model QBC856B has negative VJC.

ERROR(ORPSIM-15007): Model QBC856B has negative VJC.

ERROR(ORPSIM-15007): Model QBC856B has negative VJC.

ERROR(ORPSIM-15007): Model QBC856B has negative VJC.

ERROR(ORPSIM-15007): Model QBC856B has negative VJC.

ERROR(ORPSIM-15007): Model QBC856B has negative VJC.

ERROR(ORPSIM-15007): Model QBC856B has negative VJC.

ERROR(ORPSIM-15007): Model QBC856B has negative VJC.

ERROR(ORPSIM-15007): Model QBC856B has negative VJC.

ERROR(ORPSIM-15007): Model QBC856B has negative VJC.

ERROR(ORPSIM-15007): Model QBC856B has negative VJC.

ERROR(ORPSIM-15007): Model QBC856B has negative VJC.

ERROR(ORPSIM-15007): Model QBC856B has negative VJC.

ERROR(ORPSIM-15007): Model QBC856B has negative VJC.

ERROR(ORPSIM-15007): Model QBC856B has negative VJC.

ERROR(ORPSIM-15007): Model QBC856B has negative VJC.

ERROR(ORPSIM-15007): Model QBC856B has negative VJC.

ERROR(ORPSIM-15007): Model QBC856B has negative VJC.

ERROR(ORPSIM-15007): Model QBC856B has negative VJC.

ERROR(ORPSIM-15007): Model QBC856B has negative VJC.

ERROR(ORPSIM-15007): Model QBC856B has negative VJC.

ERROR(ORPSIM-15007): Model QBC856B has negative VJC.

ERROR(ORPSIM-15007): Model QBC856B has negative VJC.

ERROR(ORPSIM-15007): Model QBC856B has negative VJC.

ERROR(ORPSIM-15007): Model QBC856B has negative VJC.

ERROR(ORPSIM-15007): Model QBC856B has negative VJC.

ERROR(ORPSIM-15007): Model QBC856B has negative VJC.

ERROR(ORPSIM-15007): Model QBC856B has negative VJC.

ERROR(ORPSIM-15007): Model QBC856B has negative VJC.

ERROR(ORPSIM-15007): Model QBC856B has negative VJC.

ERROR(ORPSIM-15007): Model QBC856B has negative VJC.

ERROR(ORPSIM-15007): Model QBC856B has negative VJC.

ERROR(ORPSIM-15007): Model QBC856B has negative VJC.

ERROR(ORPSIM-15007): Model QBC856B has negative VJC.

ERROR(ORPSIM-15007): Model QBC856B has negative VJC.

ERROR(ORPSIM-15007): Model QBC856B has negative VJC.

ERROR(ORPSIM-15007): Model QBC856B has negative VJC.

ERROR(ORPSIM-15007): Model QBC856B has negative VJC.

ERROR(ORPSIM-15007): Model QBC856B has negative VJC.

ERROR(ORPSIM-15007): Model QBC856B has negative VJC.

ERROR(ORPSIM-15007): Model QBC856B has negative VJC.

ERROR(ORPSIM-15007): Model QBC856B has negative VJC.

ERROR(ORPSIM-15007): Model QBC856B has negative VJC.

ERROR(ORPSIM-15007): Model QBC856B has negative VJC.

ERROR(ORPSIM-15007): Model QBC856B has negative VJC.

ERROR(ORPSIM-15007): Model QBC856B has negative VJC.

ERROR(ORPSIM-15007): Model QBC856B has negative VJC.

ERROR(ORPSIM-15007): Model QBC856B has negative VJC.

ERROR(ORPSIM-15007): Model QBC856B has negative VJC.

ERROR(ORPSIM-15007): Model QBC856B has negative VJC.

ERROR(ORPSIM-15007): Model QBC856B has negative VJC.

ERROR(ORPSIM-15007): Model QBC856B has negative VJC.

ERROR(ORPSIM-15007): Model QBC856B has negative VJC.

ERROR(ORPSIM-15007): Model QBC856B has negative VJC.

ERROR(ORPSIM-15007): Model QBC856B has negative VJC.

ERROR(ORPSIM-15007): Model QBC856B has negative VJC.

ERROR(ORPSIM-15007): Model QBC856B has negative VJC.

ERROR(ORPSIM-15007): Model QBC856B has negative VJC.

ERROR(ORPSIM-15007): Model QBC856B has negative VJC.

ERROR(ORPSIM-15007): Model QBC856B has negative VJC.

ERROR(ORPSIM-15007): Model QBC856B has negative VJC.

ERROR(ORPSIM-15007): Model QBC856B has negative VJC.

ERROR(ORPSIM-15007): Model QBC856B has negative VJC.

ERROR(ORPSIM-15007): Model QBC856B has negative VJC.

ERROR(ORPSIM-15007): Model QBC856B has negative VJC.

ERROR(ORPSIM-15007): Model QBC856B has negative VJC.

ERROR(ORPSIM-15007): Model QBC856B has negative VJC.

ERROR(ORPSIM-15007): Model QBC856B has negative VJC.

ERROR(ORPSIM-15007): Model QBC856B has negative VJC.

ERROR(ORPSIM-15007): Model QBC856B has negative VJC.

ERROR(ORPSIM-15007): Model QBC856B has negative VJC.

ERROR(ORPSIM-15007): Model QBC856B has negative VJC.

ERROR(ORPSIM-15007): Model QBC856B has negative VJC.

ERROR(ORPSIM-15007): Model QBC856B has negative VJC.

ERROR(ORPSIM-15007): Model QBC856B has negative VJC.

ERROR(ORPSIM-15007): Model QBC856B has negative VJC.

ERROR(ORPSIM-15007): Model QBC856B has negative VJC.

ERROR(ORPSIM-15007): Model QBC856B has negative VJC.

ERROR(ORPSIM-15007): Model QBC856B has negative VJC.

ERROR(ORPSIM-15007): Model QBC856B has negative VJC.

ERROR(ORPSIM-15007): Model QBC856B has negative VJC.

ERROR(ORPSIM-15007): Model QBC856B has negative VJC.

ERROR(ORPSIM-15007): Model QBC856B has negative VJC.

ERROR(ORPSIM-15007): Model QBC856B has negative VJC.

ERROR(ORPSIM-15007): Model QBC856B has negative VJC.

ERROR(ORPSIM-15007): Model QBC856B has negative VJC.

ERROR(ORPSIM-15007): Model QBC856B has negative VJC.

ERROR(ORPSIM-15007): Model QBC856B has negative VJC.

ERROR(ORPSIM-15007): Model QBC856B has negative VJC.

ERROR(ORPSIM-15007): Model QBC856B has negative VJC.

ERROR(ORPSIM-15007): Model QBC856B has negative VJC.

ERROR(ORPSIM-15007): Model QBC856B has negative VJC.

ERROR(ORPSIM-15007): Model QBC856B has negative VJC.

ERROR(ORPSIM-15007): Model QBC856B has negative VJC.

ERROR(ORPSIM-15007): Model QBC856B has negative VJC.

ERROR(ORPSIM-15007): Model QBC856B has negative VJC.

ERROR(ORPSIM-15007): Model QBC856B has negative VJC.

ERROR(ORPSIM-15007): Model QBC856B has negative VJC.

ERROR(ORPSIM-15007): Model QBC856B has negative VJC.

ERROR(ORPSIM-15007): Model QBC856B has negative VJC.

ERROR(ORPSIM-15007): Model QBC856B has negative VJC.

ERROR(ORPSIM-15007): Model QBC856B has negative VJC.

ERROR(ORPSIM-15007): Model QBC856B has negative VJC.

ERROR(ORPSIM-15007): Model QBC856B has negative VJC.

ERROR(ORPSIM-15007): Model QBC856B has negative VJC.

ERROR(ORPSIM-15007): Model QBC856B has negative VJC.

ERROR(ORPSIM-15007): Model QBC856B has negative VJC.

ERROR(ORPSIM-15007): Model QBC856B has negative VJC.

ERROR(ORPSIM-15007): Model QBC856B has negative VJC.

ERROR(ORPSIM-15007): Model QBC856B has negative VJC.

ERROR(ORPSIM-15007): Model QBC856B has negative VJC.

ERROR(ORPSIM-15007): Model QBC856B has negative VJC.

ERROR(ORPSIM-15007): Model QBC856B has negative VJC.

ERROR(ORPSIM-15007): Model QBC856B has negative VJC.

ERROR(ORPSIM-15007): Model QBC856B has negative VJC.

ERROR(ORPSIM-15007): Model QBC856B has negative VJC.

ERROR(ORPSIM-15007): Model QBC856B has negative VJC.

ERROR(ORPSIM-15007): Model QBC856B has negative VJC.

ERROR(ORPSIM-15007): Model QBC856B has negative VJC.

ERROR(ORPSIM-15007): Model QBC856B has negative VJC.

ERROR(ORPSIM-15007): Model QBC856B has negative VJC.

ERROR(ORPSIM-15007): Model QBC856B has negative VJC.

ERROR(ORPSIM-15007): Model QBC856B has negative VJC.

ERROR(ORPSIM-15007): Model QBC856B has negative VJC.

ERROR(ORPSIM-15007): Model QBC856B has negative VJC.

ERROR(ORPSIM-15007): Model QBC856B has negative VJC.

ERROR(ORPSIM-15007): Model QBC856B has negative VJC.

ERROR(ORPSIM-15007): Model QBC856B has negative VJC.

ERROR(ORPSIM-15007): Model QBC856B has negative VJC.

ERROR(ORPSIM-15007): Model QBC856B has negative VJC.

ERROR(ORPSIM-15007): Model QBC856B has negative VJC.

ERROR(ORPSIM-15007): Model QBC856B has negative VJC.

ERROR(ORPSIM-15007): Model QBC856B has negative VJC.

ERROR(ORPSIM-15007): Model QBC856B has negative VJC.

ERROR(ORPSIM-15007): Model QBC856B has negative VJC.

ERROR(ORPSIM-15007): Model QBC856B has negative VJC.

ERROR(ORPSIM-15007): Model QBC856B has negative VJC.

ERROR(ORPSIM-15007): Model QBC856B has negative VJC.

ERROR(ORPSIM-15007): Model QBC856B has negative VJC.

ERROR(ORPSIM-15007): Model QBC856B has negative VJC.

ERROR(ORPSIM-15007): Model QBC856B has negative VJC.

ERROR(ORPSIM-15007): Model QBC856B has negative VJC.

ERROR(ORPSIM-15007): Model QBC856B has negative VJC.

ERROR(ORPSIM-15007): Model QBC856B has negative VJC.

ERROR(ORPSIM-15007): Model QBC856B has negative VJC.

ERROR(ORPSIM-15007): Model QBC856B has negative VJC.

ERROR(ORPSIM-15007): Model QBC856B has negative VJC.

ERROR(ORPSIM-15007): Model QBC856B has negative VJC.

ERROR(ORPSIM-15007): Model QBC856B has negative VJC.

ERROR(ORPSIM-15007): Model QBC856B has negative VJC.

ERROR(ORPSIM-15007): Model QBC856B has negative VJC.

ERROR(ORPSIM-15007): Model QBC856B has negative VJC.

ERROR(ORPSIM-15007): Model QBC856B has negative VJC.

ERROR(ORPSIM-15007): Model QBC856B has negative VJC.

ERROR(ORPSIM-15007): Model QBC856B has negative VJC.

ERROR(ORPSIM-15007): Model QBC856B has negative VJC.

ERROR(ORPSIM-15007): Model QBC856B has negative VJC.

ERROR(ORPSIM-15007): Model QBC856B has negative VJC.

ERROR(ORPSIM-15007): Model QBC856B has negative VJC.

ERROR(ORPSIM-15007): Model QBC856B has negative VJC.

ERROR(ORPSIM-15007): Model QBC856B has negative VJC.

ERROR(ORPSIM-15007): Model QBC856B has negative VJC.

ERROR(ORPSIM-15007): Model QBC856B has negative VJC.

ERROR(ORPSIM-15007): Model QBC856B has negative VJC.

ERROR(ORPSIM-15007): Model QBC856B has negative VJC.

ERROR(ORPSIM-15007): Model QBC856B has negative VJC.

ERROR(ORPSIM-15007): Model QBC856B has negative VJC.

ERROR(ORPSIM-15007): Model QBC856B has negative VJC.

ERROR(ORPSIM-15007): Model QBC856B has negative VJC.

ERROR(ORPSIM-15007): Model QBC856B has negative VJC.

ERROR(ORPSIM-15007): Model QBC856B has negative VJC.

ERROR(ORPSIM-15007): Model QBC856B has negative VJC.

ERROR(ORPSIM-15007): Model QBC856B has negative VJC.

ERROR(ORPSIM-15007): Model QBC856B has negative VJC.

ERROR(ORPSIM-15007): Model QBC856B has negative VJC.

ERROR(ORPSIM-15007): Model QBC856B has negative VJC.

ERROR(ORPSIM-15007): Model QBC856B has negative VJC.

ERROR(ORPSIM-15007): Model QBC856B has negative VJC.

ERROR(ORPSIM-15007): Model QBC856B has negative VJC.

ERROR(ORPSIM-15007): Model QBC856B has negative VJC.

ERROR(ORPSIM-15007): Model QBC856B has negative VJC.

ERROR(ORPSIM-15007): Model QBC856B has negative VJC.

ERROR(ORPSIM-15007): Model QBC856B has negative VJC.

ERROR(ORPSIM-15007): Model QBC856B has negative VJC.

ERROR(ORPSIM-15007): Model QBC856B has negative VJC.

ERROR(ORPSIM-15007): Model QBC856B has negative VJC.

ERROR(ORPSIM-15007): Model QBC856B has negative VJC.

ERROR(ORPSIM-15007): Model QBC856B has negative VJC.

ERROR(ORPSIM-15007): Model QBC856B has negative VJC.

ERROR(ORPSIM-15007): Model QBC856B has negative VJC.

ERROR(ORPSIM-15007): Model QBC856B has negative VJC.

ERROR(ORPSIM-15007): Model QBC856B has negative VJC.

ERROR(ORPSIM-15007): Model QBC856B has negative VJC.

ERROR(ORPSIM-15007): Model QBC856B has negative VJC.

ERROR(ORPSIM-15007): Model QBC856B has negative VJC.

ERROR(ORPSIM-15007): Model QBC856B has negative VJC.

ERROR(ORPSIM-15007): Model QBC856B has negative VJC.

ERROR(ORPSIM-15007): Model QBC856B has negative VJC.

ERROR(ORPSIM-15007): Model QBC856B has negative VJC.

ERROR(ORPSIM-15007): Model QBC856B has negative VJC.

ERROR(ORPSIM-15007): Model QBC856B has negative VJC.

ERROR(ORPSIM-15007): Model QBC856B has negative VJC.

ERROR(ORPSIM-15007): Model QBC856B has negative VJC.

ERROR(ORPSIM-15007): Model QBC856B has negative VJC.

ERROR(ORPSIM-15007): Model QBC856B has negative VJC.

ERROR(ORPSIM-15007): Model QBC856B has negative VJC.

ERROR(ORPSIM-15007): Model QBC856B has negative VJC.

ERROR(ORPSIM-15007): Model QBC856B has negative VJC.

ERROR(ORPSIM-15007): Model QBC856B has negative VJC.

ERROR(ORPSIM-15007): Model QBC856B has negative VJC.

ERROR(ORPSIM-15007): Model QBC856B has negative VJC.

ERROR(ORPSIM-15007): Model QBC856B has negative VJC.

ERROR(ORPSIM-15007): Model QBC856B has negative VJC.

ERROR(ORPSIM-15007): Model QBC856B has negative VJC.

ERROR(ORPSIM-15007): Model QBC856B has negative VJC.

ERROR(ORPSIM-15007): Model QBC856B has negative VJC.

ERROR(ORPSIM-15007): Model QBC856B has negative VJC.

ERROR(ORPSIM-15007): Model QBC856B has negative VJC.

ERROR(ORPSIM-15007): Model QBC856B has negative VJC.

ERROR(ORPSIM-15007): Model QBC856B has negative VJC.

ERROR(ORPSIM-15007): Model QBC856B has negative VJC.

ERROR(ORPSIM-15007): Model QBC856B has negative VJC.

ERROR(ORPSIM-15007): Model QBC856B has negative VJC.

ERROR(ORPSIM-15007): Model QBC856B has negative VJC.

ERROR(ORPSIM-15007): Model QBC856B has negative VJC.

ERROR(ORPSIM-15007): Model QBC856B has negative VJC.

ERROR(ORPSIM-15007): Model QBC856B has negative VJC.

ERROR(ORPSIM-15007): Model QBC856B has negative VJC.

ERROR(ORPSIM-15007): Model QBC856B has negative VJC.

ERROR(ORPSIM-15007): Model QBC856B has negative VJC.

ERROR(ORPSIM-15007): Model QBC856B has negative VJC.

ERROR(ORPSIM-15007): Model QBC856B has negative VJC.

ERROR(ORPSIM-15007): Model QBC856B has negative VJC.

ERROR(ORPSIM-15007): Model QBC856B has negative VJC.

ERROR(ORPSIM-15007): Model QBC856B has negative VJC.

ERROR(ORPSIM-15007): Model QBC856B has negative VJC.

ERROR(ORPSIM-15007): Model QBC856B has negative VJC.

ERROR(ORPSIM-15007): Model QBC856B has negative VJC.

ERROR(ORPSIM-15007): Model QBC856B has negative VJC.

ERROR(ORPSIM-15007): Model QBC856B has negative VJC.

ERROR(ORPSIM-15007): Model QBC856B has negative VJC.

ERROR(ORPSIM-15007): Model QBC856B has negative VJC.

ERROR(ORPSIM-15007): Model QBC856B has negative VJC.

ERROR(ORPSIM-15007): Model QBC856B has negative VJC.

ERROR(ORPSIM-15007): Model QBC856B has negative VJC.

ERROR(ORPSIM-15007): Model QBC856B has negative VJC.

ERROR(ORPSIM-15007): Model QBC856B has negative VJC.

ERROR(ORPSIM-15007): Model QBC856B has negative VJC.

ERROR(ORPSIM-15007): Model QBC856B has negative VJC.

ERROR(ORPSIM-15007): Model QBC856B has negative VJC.

ERROR(ORPSIM-15007): Model QBC856B has negative VJC.

ERROR(ORPSIM-15007): Model QBC856B has negative VJC.

ERROR(ORPSIM-15007): Model QBC856B has negative VJC.

ERROR(ORPSIM-15007): Model QBC856B has negative VJC.

ERROR(ORPSIM-15007): Model QBC856B has negative VJC.

ERROR(ORPSIM-15007): Model QBC856B has negative VJC.

ERROR(ORPSIM-15007): Model QBC856B has negative VJC.

ERROR(ORPSIM-15007): Model QBC856B has negative VJC.

ERROR(ORPSIM-15007): Model QBC856B has negative VJC.

ERROR(ORPSIM-15007): Model QBC856B has negative VJC.

ERROR(ORPSIM-15007): Model QBC856B has negative VJC.

ERROR(ORPSIM-15007): Model QBC856B has negative VJC.

ERROR(ORPSIM-15007): Model QBC856B has negative VJC.

ERROR(ORPSIM-15007): Model QBC856B has negative VJC.

ERROR(ORPSIM-15007): Model QBC856B has negative VJC.

ERROR(ORPSIM-15007): Model QBC856B has negative VJC.

ERROR(ORPSIM-15007): Model QBC856B has negative VJC.

ERROR(ORPSIM-15007): Model QBC856B has negative VJC.

ERROR(ORPSIM-15007): Model QBC856B has negative VJC.

ERROR(ORPSIM-15007): Model QBC856B has negative VJC.

ERROR(ORPSIM-15007): Model QBC856B has negative VJC.

ERROR(ORPSIM-15007): Model QBC856B has negative VJC.

ERROR(ORPSIM-15007): Model QBC856B has negative VJC.

ERROR(ORPSIM-15007): Model QBC856B has negative VJC.

ERROR(ORPSIM-15007): Model QBC856B has negative VJC.

ERROR(ORPSIM-15007): Model QBC856B has negative VJC.

ERROR(ORPSIM-15007): Model QBC856B has negative VJC.

ERROR(ORPSIM-15007): Model QBC856B has negative VJC.

ERROR(ORPSIM-15007): Model QBC856B has negative VJC.

ERROR(ORPSIM-15007): Model QBC856B has negative VJC.

ERROR(ORPSIM-15007): Model QBC856B has negative VJC.

ERROR(ORPSIM-15007): Model QBC856B has negative VJC.

ERROR(ORPSIM-15007): Model QBC856B has negative VJC.

ERROR(ORPSIM-15007): Model QBC856B has negative VJC.

ERROR(ORPSIM-15007): Model QBC856B has negative VJC.

ERROR(ORPSIM-15007): Model QBC856B has negative VJC.

ERROR(ORPSIM-15007): Model QBC856B has negative VJC.

ERROR(ORPSIM-15007): Model QBC856B has negative VJC.

ERROR(ORPSIM-15007): Model QBC856B has negative VJC.

ERROR(ORPSIM-15007): Model QBC856B has negative VJC.

ERROR(ORPSIM-15007): Model QBC856B has negative VJC.

ERROR(ORPSIM-15007): Model QBC856B has negative VJC.

ERROR(ORPSIM-15007): Model QBC856B has negative VJC.

ERROR(ORPSIM-15007): Model QBC856B has negative VJC.

ERROR(ORPSIM-15007): Model QBC856B has negative VJC.

ERROR(ORPSIM-15007): Model QBC856B has negative VJC.

ERROR(ORPSIM-15007): Model QBC856B has negative VJC.

ERROR(ORPSIM-15007): Model QBC856B has negative VJC.

ERROR(ORPSIM-15007): Model QBC856B has negative VJC.

ERROR(ORPSIM-15007): Model QBC856B has negative VJC.

ERROR(ORPSIM-15007): Model QBC856B has negative VJC.

ERROR(ORPSIM-15007): Model QBC856B has negative VJC.

ERROR(ORPSIM-15007): Model QBC856B has negative VJC.

ERROR(ORPSIM-15007): Model QBC856B has negative VJC.

ERROR(ORPSIM-15007): Model QBC856B has negative VJC.

ERROR(ORPSIM-15007): Model QBC856B has negative VJC.

ERROR(ORPSIM-15007): Model QBC856B has negative VJC.

ERROR(ORPSIM-15007): Model QBC856B has negative VJC.

ERROR(ORPSIM-15007): Model QBC856B has negative VJC.

ERROR(ORPSIM-15007): Model QBC856B has negative VJC.

ERROR(ORPSIM-15007): Model QBC856B has negative VJC.

ERROR(ORPSIM-15007): Model QBC856B has negative VJC.

ERROR(ORPSIM-15007): Model QBC856B has negative VJC.

ERROR(ORPSIM-15007): Model QBC856B has negative VJC.

ERROR(ORPSIM-15007): Model QBC856B has negative VJC.

ERROR(ORPSIM-15007): Model QBC856B has negative VJC.

ERROR(ORPSIM-15007): Model QBC856B has negative VJC.

ERROR(ORPSIM-15007): Model QBC856B has negative VJC.

ERROR(ORPSIM-15007): Model QBC856B has negative VJC.

ERROR(ORPSIM-15007): Model QBC856B has negative VJC.

ERROR(ORPSIM-15007): Model QBC856B has negative VJC.

ERROR(ORPSIM-15007): Model QBC856B has negative VJC.

ERROR(ORPSIM-15007): Model QBC856B has negative VJC.

ERROR(ORPSIM-15007): Model QBC856B has negative VJC.

ERROR(ORPSIM-15007): Model QBC856B has negative VJC.

ERROR(ORPSIM-15007): Model QBC856B has negative VJC.

ERROR(ORPSIM-15007): Model QBC856B has negative VJC.

ERROR(ORPSIM-15007): Model QBC856B has negative VJC.

ERROR(ORPSIM-15007): Model QBC856B has negative VJC.

ERROR(ORPSIM-15007): Model QBC856B has negative VJC.

ERROR(ORPSIM-15007): Model QBC856B has negative VJC.

ERROR(ORPSIM-15007): Model QBC856B has negative VJC.

ERROR(ORPSIM-15007): Model QBC856B has negative VJC.

ERROR(ORPSIM-15007): Model QBC856B has negative VJC.

ERROR(ORPSIM-15007): Model QBC856B has negative VJC.

ERROR(ORPSIM-15007): Model QBC856B has negative VJC.

ERROR(ORPSIM-15007): Model QBC856B has negative VJC.

ERROR(ORPSIM-15007): Model QBC856B has negative VJC.

ERROR(ORPSIM-15007): Model QBC856B has negative VJC.

ERROR(ORPSIM-15007): Model QBC856B has negative VJC.

ERROR(ORPSIM-15007): Model QBC856B has negative VJC.

ERROR(ORPSIM-15007): Model QBC856B has negative VJC.

ERROR(ORPSIM-15007): Model QBC856B has negative VJC.

ERROR(ORPSIM-15007): Model QBC856B has negative VJC.

ERROR(ORPSIM-15007): Model QBC856B has negative VJC.

ERROR(ORPSIM-15007): Model QBC856B has negative VJC.

ERROR(ORPSIM-15007): Model QBC856B has negative VJC.

ERROR(ORPSIM-15007): Model QBC856B has negative VJC.

ERROR(ORPSIM-15007): Model QBC856B has negative VJC.

ERROR(ORPSIM-15007): Model QBC856B has negative VJC.

ERROR(ORPSIM-15007): Model QBC856B has negative VJC.

ERROR(ORPSIM-15007): Model QBC856B has negative VJC.

ERROR(ORPSIM-15007): Model QBC856B has negative VJC.

ERROR(ORPSIM-15007): Model QBC856B has negative VJC.

ERROR(ORPSIM-15007): Model QBC856B has negative VJC.

ERROR(ORPSIM-15007): Model QBC856B has negative VJC.

[...]

ERROR(ORPSIM-15007): Model QBC846B has negative VJC.

ERROR(ORPSIM-15007): Model QBC846B has negative VJS.

ERROR(ORPSIM-15007): Model QBC856B has negative VJE.

ERROR(ORPSIM-15007): Model QBC856B has negative VJC.

ERROR(ORPSIM-15007): Model QBC856B has negative VJS.

ERROR(ORPSIM-15007): Model QMJD31C has negative VJE.

ERROR(ORPSIM-15007): Model QMJD31C has negative VJS.

ERROR(ORPSIM-15007): Model QBC846B has negative VJE.

ERROR(ORPSIM-15007): Model QBC846B has negative VJC.

ERROR(ORPSIM-15007): Model QBC846B has negative VJS.

ERROR(ORPSIM-15007): Model QBC856B has negative VJE.

ERROR(ORPSIM-15007): Model QBC856B has negative VJC.

ERROR(ORPSIM-15007): Model QBC856B has negative VJS.

ERROR(ORPSIM-15007): Model QMJD31C has negative VJE.

ERROR(ORPSIM-15007): Model QMJD31C has negative VJS.

ERROR(ORPSIM-15007): Model QBC846B has negative VJE.

ERROR(ORPSIM-15007): Model QBC846B has negative VJC.

ERROR(ORPSIM-15007): Model QBC846B has negative VJS.

ERROR(ORPSIM-15007): Model QBC856B has negative VJE.

ERROR(ORPSIM-15007): Model QBC856B has negative VJC.

ERROR(ORPSIM-15007): Model QBC856B has negative VJS.

ERROR(ORPSIM-15007): Model QMJD31C has negative VJE.

ERROR(ORPSIM-15007): Model QMJD31C has negative VJS.

ERROR(ORPSIM-15007): Model QBC846B has negative VJE.

ERROR(ORPSIM-15007): Model QBC846B has negative VJC.

ERROR(ORPSIM-15007): Model QBC846B has negative VJS.

ERROR(ORPSIM-15007): Model QBC856B has negative VJE.

ERROR(ORPSIM-15007): Model QBC856B has negative VJC.

ERROR(ORPSIM-15007): Model QBC856B has negative VJS.

ERROR(ORPSIM-15007): Model QMJD31C has negative VJE.

ERROR(ORPSIM-15007): Model QMJD31C has negative VJS.

ERROR(ORPSIM-15007): Model QBC846B has negative VJE.

ERROR(ORPSIM-15007): Model QBC846B has negative VJC.

ERROR(ORPSIM-15007): Model QBC846B has negative VJS.

ERROR(ORPSIM-15007): Model QBC856B has negative VJE.

ERROR(ORPSIM-15007): Model QBC856B has negative VJC.

ERROR(ORPSIM-15007): Model QBC856B has negative VJS.

ERROR(ORPSIM-15007): Model QMJD31C has negative VJE.

ERROR(ORPSIM-15007): Model QMJD31C has negative VJS.

ERROR(ORPSIM-15007): Model QBC846B has negative VJE.

ERROR(ORPSIM-15007): Model QBC846B has negative VJC.

ERROR(ORPSIM-15007): Model QBC846B has negative VJS.

ERROR(ORPSIM-15007): Model QBC856B has negative VJE.

ERROR(ORPSIM-15007): Model QBC856B has negative VJC.

ERROR(ORPSIM-15007): Model QBC856B has negative VJS.

ERROR(ORPSIM-15007): Model QMJD31C has negative VJE.

ERROR(ORPSIM-15007): Model QMJD31C has negative VJS.

ERROR(ORPSIM-15007): Model QBC846B has negative VJE.

ERROR(ORPSIM-15007): Model QBC846B has negative VJC.

ERROR(ORPSIM-15007): Model QBC846B has negative VJS.

ERROR(ORPSIM-15007): Model QBC856B has negative VJE.

ERROR(ORPSIM-15007): Model QBC856B has negative VJC.

ERROR(ORPSIM-15007): Model QBC856B has negative VJS.

ERROR(ORPSIM-15007): Model QMJD31C has negative VJE.

ERROR(ORPSIM-15007): Model QMJD31C has negative VJS.

ERROR(ORPSIM-15007): Model QBC846B has negative VJE.

ERROR(ORPSIM-15007): Model QBC846B has negative VJC.

ERROR(ORPSIM-15007): Model QBC846B has negative VJS.

ERROR(ORPSIM-15007): Model QBC856B has negative VJE.

ERROR(ORPSIM-15007): Model QBC856B has negative VJC.

ERROR(ORPSIM-15007): Model QBC856B has negative VJS.

ERROR(ORPSIM-15007): Model QMJD31C has negative VJE.

ERROR(ORPSIM-15007): Model QMJD31C has negative VJS.

ERROR(ORPSIM-15007): Model QBC846B has negative VJE.

ERROR(ORPSIM-15007): Model QBC846B has negative VJC.

ERROR(ORPSIM-15007): Model QBC846B has negative VJS.

ERROR(ORPSIM-15007): Model QBC856B has negative VJE.

ERROR(ORPSIM-15007): Model QBC856B has negative VJC.

ERROR(ORPSIM-15007): Model QBC856B has negative VJS.

ERROR(ORPSIM-15007): Model QMJD31C has negative VJE.

ERROR(ORPSIM-15007): Model QMJD31C has negative VJS.

ERROR(ORPSIM-15007): Model QBC846B has negative VJE.

ERROR(ORPSIM-15007): Model QBC846B has negative VJC.

ERROR(ORPSIM-15007): Model QBC846B has negative VJS.

ERROR(ORPSIM-15007): Model QBC856B has negative VJE.

ERROR(ORPSIM-15007): Model QBC856B has negative VJC.

ERROR(ORPSIM-15007): Model QBC856B has negative VJS.

ERROR(ORPSIM-15007): Model QMJD31C has negative VJE.

ERROR(ORPSIM-15007): Model QMJD31C has negative VJS.

ERROR(ORPSIM-15007): Model QBC846B has negative VJE.

ERROR(ORPSIM-15007): Model QBC846B has negative VJC.

ERROR(ORPSIM-15007): Model QBC846B has negative VJS.

ERROR(ORPSIM-15007): Model QBC856B has negative VJE.

ERROR(ORPSIM-15007): Model QBC856B has negative VJC.

ERROR(ORPSIM-15007): Model QBC856B has negative VJS.

ERROR(ORPSIM-15007): Model QMJD31C has negative VJE.

ERROR(ORPSIM-15007): Model QMJD31C has negative VJS.

ERROR(ORPSIM-15007): Model QBC846B has negative VJE.

ERROR(ORPSIM-15007): Model QBC846B has negative VJC.

ERROR(ORPSIM-15007): Model QBC846B has negative VJS.

ERROR(ORPSIM-15007): Model QBC856B has negative VJE.

ERROR(ORPSIM-15007): Model QBC856B has negative VJC.

ERROR(ORPSIM-15007): Model QBC856B has negative VJS.

ERROR(ORPSIM-15007): Model QMJD31C has negative VJE.

ERROR(ORPSIM-15007): Model QMJD31C has negative VJS.

ERROR(ORPSIM-15007): Model QBC846B has negative VJE.

ERROR(ORPSIM-15007): Model QBC846B has negative VJC.

ERROR(ORPSIM-15007): Model QBC846B has negative VJS.

ERROR(ORPSIM-15007): Model QBC856B has negative VJE.

ERROR(ORPSIM-15007): Model QBC856B has negative VJC.

ERROR(ORPSIM-15007): Model QBC856B has negative VJS.

ERROR(ORPSIM-15007): Model QMJD31C has negative VJE.

ERROR(ORPSIM-15007): Model QMJD31C has negative VJS.

ERROR(ORPSIM-15007): Model QBC846B has negative VJE.

ERROR(ORPSIM-15007): Model QBC846B has negative VJC.

ERROR(ORPSIM-15007): Model QBC846B has negative VJS.

ERROR(ORPSIM-15007): Model QBC856B has negative VJE.

ERROR(ORPSIM-15007): Model QBC856B has negative VJC.

ERROR(ORPSIM-15007): Model QBC856B has negative VJS.

ERROR(ORPSIM-15007): Model QMJD31C has negative VJE.

ERROR(ORPSIM-15007): Model QMJD31C has negative VJS.

ERROR(ORPSIM-15007): Model QBC846B has negative VJE.

ERROR(ORPSIM-15007): Model QBC846B has negative VJC.

ERROR(ORPSIM-15007): Model QBC846B has negative VJS.

ERROR(ORPSIM-15007): Model QBC856B has negative VJE.

ERROR(ORPSIM-15007): Model QBC856B has negative VJC.

ERROR(ORPSIM-15007): Model QBC856B has negative VJS.

ERROR(ORPSIM-15007): Model QMJD31C has negative VJE.

ERROR(ORPSIM-15007): Model QMJD31C has negative VJS.

ERROR(ORPSIM-15007): Model QBC846B has negative VJE.

ERROR(ORPSIM-15007): Model QBC846B has negative VJC.

ERROR(ORPSIM-15007): Model QBC846B has negative VJS.

ERROR(ORPSIM-15007): Model QBC856B has negative VJE.

ERROR(ORPSIM-15007): Model QBC856B has negative VJC.

ERROR(ORPSIM-15007): Model QBC856B has negative VJS.

ERROR(ORPSIM-15007): Model QMJD31C has negative VJE.

ERROR(ORPSIM-15007): Model QMJD31C has negative VJS.

ERROR(ORPSIM-15007): Model QBC846B has negative VJE.

ERROR(ORPSIM-15007): Model QBC846B has negative VJC.

ERROR(ORPSIM-15007): Model QBC846B has negative VJS.

ERROR(ORPSIM-15007): Model QBC856B has negative VJE.

ERROR(ORPSIM-15007): Model QBC856B has negative VJC.

ERROR(ORPSIM-15007): Model QBC856B has negative VJS.

ERROR(ORPSIM-15007): Model QMJD31C has negative VJE.

ERROR(ORPSIM-15007): Model QMJD31C has negative VJS.

ERROR(ORPSIM-15007): Model QBC846B has negative VJE.

ERROR(ORPSIM-15007): Model QBC846B has negative VJC.

ERROR(ORPSIM-15007): Model QBC846B has negative VJS.

ERROR(ORPSIM-15007): Model QBC856B has negative VJE.

ERROR(ORPSIM-15007): Model QBC856B has negative VJC.

ERROR(ORPSIM-15007): Model QBC856B has negative VJS.

ERROR(ORPSIM-15007): Model QMJD31C has negative VJE.

ERROR(ORPSIM-15007): Model QMJD31C has negative VJS.

ERROR(ORPSIM-15007): Model QBC846B has negative VJE.

ERROR(ORPSIM-15007): Model QBC846B has negative VJC.

ERROR(ORPSIM-15007): Model QBC846B has negative VJS.

ERROR(ORPSIM-15007): Model QBC856B has negative VJE.

ERROR(ORPSIM-15007): Model QBC856B has negative VJC.

ERROR(ORPSIM-15007): Model QBC856B has negative VJS.

ERROR(ORPSIM-15007): Model QMJD31C has negative VJE.

ERROR(ORPSIM-15007): Model QMJD31C has negative VJS.

ERROR(ORPSIM-15007): Model QBC846B has negative VJE.

ERROR(ORPSIM-15007): Model QBC846B has negative VJC.

ERROR(ORPSIM-15007): Model QBC846B has negative VJS.

ERROR(ORPSIM-15007): Model QBC856B has negative VJE.

ERROR(ORPSIM-15007): Model QBC856B has negative VJC.

ERROR(ORPSIM-15007): Model QBC856B has negative VJS.

ERROR(ORPSIM-15007): Model QMJD31C has negative VJE.

ERROR(ORPSIM-15007): Model QMJD31C has negative VJS.

ERROR(ORPSIM-15007): Model QBC846B has negative VJE.

ERROR(ORPSIM-15007): Model QBC846B has negative VJC.

ERROR(ORPSIM-15007): Model QBC846B has negative VJS.

ERROR(ORPSIM-15007): Model QBC856B has negative VJE.

ERROR(ORPSIM-15007): Model QBC856B has negative VJC.

ERROR(ORPSIM-15007): Model QBC856B has negative VJS.

ERROR(ORPSIM-15007): Model QMJD31C has negative VJE.

ERROR(ORPSIM-15007): Model QMJD31C has negative VJS.

ERROR(ORPSIM-15007): Model QBC846B has negative VJE.

ERROR(ORPSIM-15007): Model QBC846B has negative VJC.

ERROR(ORPSIM-15007): Model QBC846B has negative VJS.

ERROR(ORPSIM-15007): Model QBC856B has negative VJE.

ERROR(ORPSIM-15007): Model QBC856B has negative VJC.

ERROR(ORPSIM-15007): Model QBC856B has negative VJS.

ERROR(ORPSIM-15007): Model QMJD31C has negative VJE.

ERROR(ORPSIM-15007): Model QMJD31C has negative VJS.

ERROR(ORPSIM-15007): Model QBC846B has negative VJE.

ERROR(ORPSIM-15007): Model QBC846B has negative VJC.

ERROR(ORPSIM-15007): Model QBC846B has negative VJS.

ERROR(ORPSIM-15007): Model QBC856B has negative VJE.

ERROR(ORPSIM-15007): Model QBC856B has negative VJC.

ERROR(ORPSIM-15007): Model QBC856B has negative VJS.

ERROR(ORPSIM-15007): Model QMJD31C has negative VJE.

ERROR(ORPSIM-15007): Model QMJD31C has negative VJS.

ERROR(ORPSIM-15007): Model QBC846B has negative VJE.

ERROR(ORPSIM-15007): Model QBC846B has negative VJC.

ERROR(ORPSIM-15007): Model QBC846B has negative VJS.

ERROR(ORPSIM-15007): Model QBC856B has negative VJE.

ERROR(ORPSIM-15007): Model QBC856B has negative VJC.

ERROR(ORPSIM-15007): Model QBC856B has negative VJS.

ERROR(ORPSIM-15007): Model QMJD31C has negative VJE.

ERROR(ORPSIM-15007): Model QMJD31C has negative VJS.

ERROR(ORPSIM-15007): Model QBC846B has negative VJE.

ERROR(ORPSIM-15007): Model QBC846B has negative VJC.

ERROR(ORPSIM-15007): Model QBC846B has negative VJS.

ERROR(ORPSIM-15007): Model QBC856B has negative VJE.

ERROR(ORPSIM-15007): Model QBC856B has negative VJC.

ERROR(ORPSIM-15007): Model QBC856B has negative VJS.

ERROR(ORPSIM-15007): Model QMJD31C has negative VJE.

ERROR(ORPSIM-15007): Model QMJD31C has negative VJS.

ERROR(ORPSIM-15007): Model QBC846B has negative VJE.

ERROR(ORPSIM-15007): Model QBC846B has negative VJC.

ERROR(ORPSIM-15007): Model QBC846B has negative VJS.

ERROR(ORPSIM-15007): Model QBC856B has negative VJE.

ERROR(ORPSIM-15007): Model QBC856B has negative VJC.

ERROR(ORPSIM-15007): Model QBC856B has negative VJS.

ERROR(ORPSIM-15007): Model QMJD31C has negative VJE.

ERROR(ORPSIM-15007): Model QMJD31C has negative VJS.

ERROR(ORPSIM-15007): Model QBC846B has negative VJE.

ERROR(ORPSIM-15007): Model QBC846B has negative VJC.

ERROR(ORPSIM-15007): Model QBC846B has negative VJS.

ERROR(ORPSIM-15007): Model QBC856B has negative VJE.

ERROR(ORPSIM-15007): Model QBC856B has negative VJC.

ERROR(ORPSIM-15007): Model QBC856B has negative VJS.

ERROR(ORPSIM-15007): Model QMJD31C has negative VJE.

ERROR(ORPSIM-15007): Model QMJD31C has negative VJS.

ERROR(ORPSIM-15007): Model QBC846B has negative VJE.

ERROR(ORPSIM-15007): Model QBC846B has negative VJC.

ERROR(ORPSIM-15007): Model QBC846B has negative VJS.

ERROR(ORPSIM-15007): Model QBC856B has negative VJE.

ERROR(ORPSIM-15007): Model QBC856B has negative VJC.

ERROR(ORPSIM-15007): Model QBC856B has negative VJS.

ERROR(ORPSIM-15007): Model QMJD31C has negative VJE.

ERROR(ORPSIM-15007): Model QMJD31C has negative VJS.

ERROR(ORPSIM-15007): Model QBC846B has negative VJE.

ERROR(ORPSIM-15007): Model QBC846B has negative VJC.

ERROR(ORPSIM-15007): Model QBC846B has negative VJS.

ERROR(ORPSIM-15007): Model QBC856B has negative VJE.

ERROR(ORPSIM-15007): Model QBC856B has negative VJC.

ERROR(ORPSIM-15007): Model QBC856B has negative VJS.

ERROR(ORPSIM-15007): Model QMJD31C has negative VJE.

ERROR(ORPSIM-15007): Model QMJD31C has negative VJS.

ERROR(ORPSIM-15007): Model QBC846B has negative VJE.

ERROR(ORPSIM-15007): Model QBC846B has negative VJC.

ERROR(ORPSIM-15007): Model QBC846B has negative VJS.

ERROR(ORPSIM-15007): Model QBC856B has negative VJE.

ERROR(ORPSIM-15007): Model QBC856B has negative VJC.

ERROR(ORPSIM-15007): Model QBC856B has negative VJS.

ERROR(ORPSIM-15007): Model QMJD31C has negative VJE.

ERROR(ORPSIM-15007): Model QMJD31C has negative VJS.

ERROR(ORPSIM-15007): Model QBC846B has negative VJE.

ERROR(ORPSIM-15007): Model QBC846B has negative VJC.

ERROR(ORPSIM-15007): Model QBC846B has negative VJS.

ERROR(ORPSIM-15007): Model QBC856B has negative VJE.

ERROR(ORPSIM-15007): Model QBC856B has negative VJC.

ERROR(ORPSIM-15007): Model QBC856B has negative VJS.

ERROR(ORPSIM-15007): Model QMJD31C has negative VJE.

ERROR(ORPSIM-15007): Model QMJD31C has negative VJS.

ERROR(ORPSIM-15007): Model QBC846B has negative VJE.

ERROR(ORPSIM-15007): Model QBC846B has negative VJC.

ERROR(ORPSIM-15007): Model QBC846B has negative VJS.

ERROR(ORPSIM-15007): Model QBC856B has negative VJE.

ERROR(ORPSIM-15007): Model QBC856B has negative VJC.

ERROR(ORPSIM-15007): Model QBC856B has negative VJS.

ERROR(ORPSIM-15007): Model QMJD31C has negative VJE.

ERROR(ORPSIM-15007): Model QMJD31C has negative VJS.

ERROR(ORPSIM-15007): Model QBC846B has negative VJE.

ERROR(ORPSIM-15007): Model QBC846B has negative VJC.

ERROR(ORPSIM-15007): Model QBC846B has negative VJS.

ERROR(ORPSIM-15007): Model QBC856B has negative VJE.

ERROR(ORPSIM-15007): Model QBC856B has negative VJC.

ERROR(ORPSIM-15007): Model QBC856B has negative VJS.

ERROR(ORPSIM-15007): Model QMJD31C has negative VJE.

ERROR(ORPSIM-15007): Model QMJD31C has negative VJS.

ERROR(ORPSIM-15007): Model QBC846B has negative VJE.

ERROR(ORPSIM-15007): Model QBC846B has negative VJC.

ERROR(ORPSIM-15007): Model QBC846B has negative VJS.

ERROR(ORPSIM-15007): Model QBC856B has negative VJE.

ERROR(ORPSIM-15007): Model QBC856B has negative VJC.

ERROR(ORPSIM-15007): Model QBC856B has negative VJS.

ERROR(ORPSIM-15007): Model QMJD31C has negative VJE.

ERROR(ORPSIM-15007): Model QMJD31C has negative VJS.

ERROR(ORPSIM-15007): Model QBC846B has negative VJE.

ERROR(ORPSIM-15007): Model QBC846B has negative VJC.

ERROR(ORPSIM-15007): Model QBC846B has negative VJS.

ERROR(ORPSIM-15007): Model QBC856B has negative VJE.

ERROR(ORPSIM-15007): Model QBC856B has negative VJC.

ERROR(ORPSIM-15007): Model QBC856B has negative VJS.

ERROR(ORPSIM-15007): Model QMJD31C has negative VJE.

ERROR(ORPSIM-15007): Model QMJD31C has negative VJS.

ERROR(ORPSIM-15007): Model QBC846B has negative VJE.

ERROR(ORPSIM-15007): Model QBC846B has negative VJC.

ERROR(ORPSIM-15007): Model QBC846B has negative VJS.

ERROR(ORPSIM-15007): Model QBC856B has negative VJE.

ERROR(ORPSIM-15007): Model QBC856B has negative VJC.

ERROR(ORPSIM-15007): Model QBC856B has negative VJS.

ERROR(ORPSIM-15007): Model QMJD31C has negative VJE.

ERROR(ORPSIM-15007): Model QMJD31C has negative VJS.

ERROR(ORPSIM-15007): Model QBC846B has negative VJE.

ERROR(ORPSIM-15007): Model QBC846B has negative VJC.

ERROR(ORPSIM-15007): Model QBC846B has negative VJS.

ERROR(ORPSIM-15007): Model QBC856B has negative VJE.

ERROR(ORPSIM-15007): Model QBC856B has negative VJC.

ERROR(ORPSIM-15007): Model QBC856B has negative VJS.

ERROR(ORPSIM-15007): Model QMJD31C has negative VJE.

ERROR(ORPSIM-15007): Model QMJD31C has negative VJS.

ERROR(ORPSIM-15007): Model QBC846B has negative VJE.

ERROR(ORPSIM-15007): Model QBC846B has negative VJC.

ERROR(ORPSIM-15007): Model QBC846B has negative VJS.

ERROR(ORPSIM-15007): Model QBC856B has negative VJE.

ERROR(ORPSIM-15007): Model QBC856B has negative VJC.

ERROR(ORPSIM-15007): Model QBC856B has negative VJS.

ERROR(ORPSIM-15007): Model QMJD31C has negative VJE.

ERROR(ORPSIM-15007): Model QMJD31C has negative VJS.

ERROR(ORPSIM-15007): Model QBC846B has negative VJE.

ERROR(ORPSIM-15007): Model QBC846B has negative VJC.

ERROR(ORPSIM-15007): Model QBC846B has negative VJS.

ERROR(ORPSIM-15007): Model QBC856B has negative VJE.

ERROR(ORPSIM-15007): Model QBC856B has negative VJC.

ERROR(ORPSIM-15007): Model QBC856B has negative VJS.

ERROR(ORPSIM-15007): Model QMJD31C has negative VJE.

ERROR(ORPSIM-15007): Model QMJD31C has negative VJS.

Starting pseudo-transient algorithm.

INTERNAL ERROR -- Invalid Number in device Q_Q8, Pow

ABORTING SIMULATION
**** 11/08/23 16:13:00 ****** PSpice Lite (October 2012) ****** ID# 10813 ****

 ** Profile: "SCHEMATIC1-temp"  [ d:\proiectul_meu\proiect-pspicefiles\schematic1\temp.sim ] 


 ****     JOB STATISTICS SUMMARY


******************************************************************************



Node counts:
  Top level (NUNODS)                =          19
  External (NCNODS)                 =          19
  Total (NUMNOD)                    =          50

Total device count (NUMEL)          =          27
  Diodes (D)                        =           1
  BJTs (Q)                          =          10
  Resistors (R)                     =          15
  Voltage Sources (V)               =           1

Number of subcircuits (X)           =           1

Matrix statistics:
  Matrix size (NSTOP)               =          51
  Initial no. elements (NTTAR)      =         209
  No. elements w/ fillin (NTTBR)    =         261
  No. fillins (IFILL)               =          52
  No. overflows (NTTOV)             =          99
  No. LU operations (IOPS)          =        2043
  Percent sparsity (PERSPA)         =      89.965

Analysis statistics:
  No. total time points (NUMTTP)    =           0
  No. rejected time points (NUMRTP) =           0
  No. iterations (NUMNIT)           =           0

Load Threads                        =           2

Runtime statistics:                       Seconds      Iterations   Stopped At
  Matrix load                       =        1.58
  Matrix solution                   =         .61               6
  Readin                            =         .02
  General setup                     =        0.00
  CMI setup                     =        0.00
  Setup                             =        0.00
  DC sweep                          =        9.11          130868
  Bias point                        =        0.00               0
  Default algorithm                 =        -.03           -1110
  GMIN stepping                     =         .02            1110      37.86u
  Supply stepping                   =         .02               0       89.40%
  AC and noise                      =        0.00               0
  Total transient analysis          =        0.00
  Output                            =        0.00
  Overhead                          =        0.00
  Total job time (using Solver 1)   =        9.19
